data_crystal

_cell_length_a    41.98200
_cell_length_b    21.55880
_cell_length_c    43.75500
_cell_angle_alpha 90.00000
_cell_angle_beta  92.63500
_cell_angle_gamma 90.00000

_symmetry_space_group_name_Hall 'P 1'
_symmetry_space_group_name_H-M  'P 1'

loop_
_symmetry_equiv_pos_as_xyz
 'x,y,z'

loop_
_atom_site_label
_atom_site_type_symbol
_atom_site_fract_x
_atom_site_fract_y
_atom_site_fract_z
In         In      0.70749   0.05183   0.50499
In         In      0.70749   0.94817   0.00499
In         In      0.20749   0.55183   0.50499
In         In      0.20749   0.44817   0.00499
In         In      0.45741   0.54375   0.63047
In         In      0.45741   0.45625   0.13047
In         In      0.95741   0.04375   0.63047
In         In      0.95741   0.95625   0.13047
In         In      0.73933   0.27178   0.15932
In         In      0.73933   0.72822   0.65932
In         In      0.23933   0.77178   0.15932
In         In      0.23933   0.22822   0.65932
In         In      0.99522   0.44839   0.91132
In         In      0.99522   0.55161   0.41132
In         In      0.49522   0.94839   0.91132
In         In      0.49522   0.05161   0.41132
In         In      0.46020   0.74095   0.25595
In         In      0.46020   0.25905   0.75595
In         In      0.96020   0.24095   0.25595
In         In      0.96020   0.75905   0.75595
In         In      0.18052   0.95588   0.06147
In         In      0.18052   0.04412   0.56147
In         In      0.68052   0.45588   0.06147
In         In      0.68052   0.54412   0.56147
In         In      0.20736   0.24726   0.38160
In         In      0.20736   0.75274   0.88160
In         In      0.70736   0.74726   0.38160
In         In      0.70736   0.25274   0.88160
In         In      0.93470   0.73104   0.31204
In         In      0.93470   0.26896   0.81204
In         In      0.43470   0.23104   0.31204
In         In      0.43470   0.76896   0.81204
O          O       0.24700   0.43440   0.04420
O          O       0.24700   0.56560   0.54420
O          O       0.74700   0.93440   0.04420
O          O       0.74700   0.06560   0.54420
C          C       0.98710   0.76600   0.25410
C          C       0.98710   0.23400   0.75410
C          C       0.48710   0.26600   0.25410
C          C       0.48710   0.73400   0.75410
O          O       0.41810   0.55960   0.59130
O          O       0.41810   0.44040   0.09130
O          O       0.91810   0.05960   0.59130
O          O       0.91810   0.94040   0.09130
N          N       0.16100   0.21600   0.38270
N          N       0.16100   0.78400   0.88270
N          N       0.66100   0.71600   0.38270
N          N       0.66100   0.28400   0.88270
O          O       0.67130   0.95350   0.03970
O          O       0.67130   0.04650   0.53970
O          O       0.17130   0.45350   0.03970
O          O       0.17130   0.54650   0.53970
O          O       0.99760   0.03040   0.59790
O          O       0.99760   0.96960   0.09790
O          O       0.49760   0.53040   0.59790
O          O       0.49760   0.46960   0.09790
O          O       0.53750   0.94380   0.94720
O          O       0.53750   0.05620   0.44720
O          O       0.03750   0.44380   0.94720
O          O       0.03750   0.55620   0.44720
N          N       0.46250   0.73040   0.20950
N          N       0.46250   0.26960   0.70950
N          N       0.96250   0.23040   0.20950
N          N       0.96250   0.76960   0.70950
O          O       0.41860   0.47040   0.16230
O          O       0.41860   0.52960   0.66230
O          O       0.91860   0.97040   0.16230
O          O       0.91860   0.02960   0.66230
O          O       0.66790   0.06560   0.46610
O          O       0.66790   0.93440   0.96610
O          O       0.16790   0.56560   0.46610
O          O       0.16790   0.43440   0.96610
O          O       0.97060   0.46970   0.38530
O          O       0.97060   0.53030   0.88530
O          O       0.47060   0.96970   0.38530
O          O       0.47060   0.03030   0.88530
C          C       0.22690   0.30510   0.44570
C          C       0.22690   0.69490   0.94570
C          C       0.72690   0.80510   0.44570
C          C       0.72690   0.19490   0.94570
N          N       0.46000   0.75390   0.30310
N          N       0.46000   0.24610   0.80310
N          N       0.96000   0.25390   0.30310
N          N       0.96000   0.74610   0.80310
O          O       0.51810   0.13780   0.38850
O          O       0.51810   0.86220   0.88850
O          O       0.01810   0.63780   0.38850
O          O       0.01810   0.36220   0.88850
C          C       0.66570   0.89470   0.03960
C          C       0.66570   0.10530   0.53960
C          C       0.16570   0.39470   0.03960
C          C       0.16570   0.60530   0.53960
O          O       0.97830   0.04400   0.15690
O          O       0.97830   0.95600   0.65690
O          O       0.47830   0.54400   0.15690
O          O       0.47830   0.45600   0.65690
N          N       0.74130   0.25910   0.11250
N          N       0.74130   0.74090   0.61250
N          N       0.24130   0.75910   0.11250
N          N       0.24130   0.24090   0.61250
O          O       0.97310   0.37320   0.94030
O          O       0.97310   0.62680   0.44030
O          O       0.47310   0.87320   0.94030
O          O       0.47310   0.12680   0.44030
N          N       0.78630   0.31030   0.16000
N          N       0.78630   0.68970   0.66000
N          N       0.28630   0.81030   0.16000
N          N       0.28630   0.18970   0.66000
O          O       0.43380   0.46890   0.60380
O          O       0.43380   0.53110   0.10380
O          O       0.93380   0.96890   0.60380
O          O       0.93380   0.03110   0.10380
C          C       0.23000   0.26070   0.31520
C          C       0.23000   0.73930   0.81520
C          C       0.73000   0.76070   0.31520
C          C       0.73000   0.23930   0.81520
O          O       0.98230   0.12370   0.60760
O          O       0.98230   0.87630   0.10760
O          O       0.48230   0.62370   0.60760
O          O       0.48230   0.37630   0.10760
O          O       0.95640   0.47020   0.94450
O          O       0.95640   0.52980   0.44450
O          O       0.45640   0.97020   0.94450
O          O       0.45640   0.02980   0.44450
C          C       0.12870   0.21030   0.46121
C          C       0.12870   0.78970   0.96121
C          C       0.62870   0.71030   0.46121
C          C       0.62870   0.28970   0.96121
C          C       0.13888   0.17690   0.48710
C          C       0.13888   0.82310   0.98710
C          C       0.63888   0.67690   0.48710
C          C       0.63888   0.32310   0.98710
H          H       0.16050   0.16430   0.48970
H          H       0.16050   0.83570   0.98970
H          H       0.66050   0.66430   0.48970
H          H       0.66050   0.33570   0.98970
C          C       0.11730   0.16200   0.50909
C          C       0.11730   0.83800   0.00909
C          C       0.61730   0.66200   0.50909
C          C       0.61730   0.33800   0.00909
H          H       0.12430   0.13920   0.52680
H          H       0.12430   0.86080   0.02680
H          H       0.62430   0.63920   0.52680
H          H       0.62430   0.36080   0.02680
C          C       0.08570   0.18030   0.50530
C          C       0.08570   0.81970   0.00530
C          C       0.58570   0.68030   0.50530
C          C       0.58570   0.31970   0.00530
C          C       0.07554   0.21370   0.47940
C          C       0.07554   0.78630   0.97940
C          C       0.57554   0.71370   0.47940
C          C       0.57554   0.28630   0.97940
H          H       0.05390   0.22630   0.47680
H          H       0.05390   0.77370   0.97680
H          H       0.55390   0.72630   0.47680
H          H       0.55390   0.27370   0.97680
C          C       0.09710   0.22860   0.45740
C          C       0.09710   0.77140   0.95740
C          C       0.59710   0.72860   0.45740
C          C       0.59710   0.27140   0.95740
H          H       0.09020   0.25140   0.43970
H          H       0.09020   0.74860   0.93970
H          H       0.59020   0.75140   0.43970
H          H       0.59020   0.24860   0.93970
N          N       0.20550   0.27400   0.42910
N          N       0.20550   0.72600   0.92910
N          N       0.70550   0.77400   0.42910
N          N       0.70550   0.22600   0.92910
N          N       0.69470   0.23380   0.15970
N          N       0.69470   0.76620   0.65970
N          N       0.19470   0.73380   0.15970
N          N       0.19470   0.26620   0.65970
N          N       0.41440   0.70640   0.25580
N          N       0.41440   0.29360   0.75580
N          N       0.91440   0.20640   0.25580
N          N       0.91440   0.79360   0.75580
C          C       0.18020   0.25760   0.44690
C          C       0.18020   0.74240   0.94690
C          C       0.68020   0.75760   0.44690
C          C       0.68020   0.24240   0.94690
O          O       0.51930   0.03740   0.93260
O          O       0.51930   0.96260   0.43260
O          O       0.01930   0.53740   0.93260
O          O       0.01930   0.46260   0.43260
O          O       0.24610   0.54480   0.47330
O          O       0.24610   0.45520   0.97330
O          O       0.74610   0.04480   0.47330
O          O       0.74610   0.95520   0.97330
N          N       0.24820   0.29900   0.38060
N          N       0.24820   0.70100   0.88060
N          N       0.74820   0.79900   0.38060
N          N       0.74820   0.20100   0.88060
N          N       0.20540   0.24570   0.33400
N          N       0.20540   0.75430   0.83400
N          N       0.70540   0.74570   0.33400
N          N       0.70540   0.25430   0.83400
O          O       0.99430   0.95170   0.16890
O          O       0.99430   0.04830   0.66890
O          O       0.49430   0.45170   0.16890
O          O       0.49430   0.54830   0.66890
C          C       0.71350   0.27740   0.22460
C          C       0.71350   0.72260   0.72460
C          C       0.21350   0.77740   0.22460
C          C       0.21350   0.22260   0.72460
C          C       0.91310   0.71630   0.37920
C          C       0.91310   0.28370   0.87920
C          C       0.41310   0.21630   0.37920
C          C       0.41310   0.78370   0.87920
O          O       0.43420   0.37060   0.15900
O          O       0.43420   0.62940   0.65900
O          O       0.93420   0.87060   0.15900
O          O       0.93420   0.12940   0.65900
O          O       0.68100   0.85780   0.02600
O          O       0.68100   0.14220   0.52600
O          O       0.18100   0.35780   0.02600
O          O       0.18100   0.64220   0.52600
C          C       0.92760   0.48360   0.34832
C          C       0.92760   0.51640   0.84832
C          C       0.42760   0.98360   0.34832
C          C       0.42760   0.01640   0.84832
C          C       0.92750   0.42020   0.34240
C          C       0.92750   0.57980   0.84240
C          C       0.42750   0.92020   0.34240
C          C       0.42750   0.07980   0.84240
H          H       0.94290   0.39410   0.35240
H          H       0.94290   0.60590   0.85240
H          H       0.44290   0.89410   0.35240
H          H       0.44290   0.10590   0.85240
C          C       0.90490   0.39510   0.32170
C          C       0.90490   0.60490   0.82170
C          C       0.40490   0.89510   0.32170
C          C       0.40490   0.10490   0.82170
H          H       0.90490   0.35180   0.31770
H          H       0.90490   0.64820   0.81770
H          H       0.40490   0.85180   0.31770
H          H       0.40490   0.14820   0.81770
C          C       0.88240   0.43330   0.30700
C          C       0.88240   0.56670   0.80700
C          C       0.38240   0.93330   0.30700
C          C       0.38240   0.06670   0.80700
C          C       0.88250   0.49670   0.31300
C          C       0.88250   0.50330   0.81300
C          C       0.38250   0.99670   0.31300
C          C       0.38250   0.00330   0.81300
H          H       0.86710   0.52280   0.30290
H          H       0.86710   0.47720   0.80290
H          H       0.36710   0.02280   0.30290
H          H       0.36710   0.97720   0.80290
C          C       0.90510   0.52180   0.33360
C          C       0.90510   0.47820   0.83360
C          C       0.40510   0.02180   0.33360
C          C       0.40510   0.97820   0.83360
H          H       0.90510   0.56510   0.33770
H          H       0.90510   0.43490   0.83770
H          H       0.40510   0.06510   0.33770
H          H       0.40510   0.93490   0.83770
C          C       0.52380   0.78540   0.22900
C          C       0.52380   0.21460   0.72900
C          C       0.02380   0.28540   0.22900
C          C       0.02380   0.71460   0.72900
N          N       0.73870   0.29070   0.20830
N          N       0.73870   0.70930   0.70830
N          N       0.23870   0.79070   0.20830
N          N       0.23870   0.20930   0.70830
N          N       0.93850   0.71410   0.26440
N          N       0.93850   0.28590   0.76440
N          N       0.43850   0.21410   0.26440
N          N       0.43850   0.78590   0.76440
C          C       0.24900   0.59920   0.46930
C          C       0.24900   0.40080   0.96930
C          C       0.74900   0.09920   0.46930
C          C       0.74900   0.90080   0.96930
O          O       0.70400   0.53270   0.08810
O          O       0.70400   0.46730   0.58810
O          O       0.20400   0.03270   0.08810
O          O       0.20400   0.96730   0.58810
C          C       0.55040   0.82270   0.23950
C          C       0.55040   0.17730   0.73950
C          C       0.05040   0.32270   0.23950
C          C       0.05040   0.67730   0.73950
H          H       0.56510   0.84160   0.22650
H          H       0.56510   0.15840   0.72650
H          H       0.06510   0.34160   0.22650
H          H       0.06510   0.65840   0.72650
C          C       0.96100   0.73190   0.24610
C          C       0.96100   0.26810   0.74610
C          C       0.46100   0.23190   0.24610
C          C       0.46100   0.76810   0.74610
C          C       0.99530   0.01010   0.17210
C          C       0.99530   0.98990   0.67210
C          C       0.49530   0.51010   0.17210
C          C       0.49530   0.48990   0.67210
C          C       0.53730   0.00120   0.94890
C          C       0.53730   0.99880   0.44890
C          C       0.03730   0.50120   0.94890
C          C       0.03730   0.49880   0.44890
C          C       0.39680   0.68420   0.23140
C          C       0.39680   0.31580   0.73140
C          C       0.89680   0.18420   0.23140
C          C       0.89680   0.81580   0.73140
N          N       0.93710   0.73580   0.35950
N          N       0.93710   0.26420   0.85950
N          N       0.43710   0.23580   0.35950
N          N       0.43710   0.76420   0.85950
C          C       0.48570   0.74450   0.19030
C          C       0.48570   0.25550   0.69030
C          C       0.98570   0.24450   0.19030
C          C       0.98570   0.75550   0.69030
O          O       0.14150   0.96400   0.09560
O          O       0.14150   0.03600   0.59560
O          O       0.64150   0.46400   0.09560
O          O       0.64150   0.53600   0.59560
C          C       0.71880   0.23510   0.09480
C          C       0.71880   0.76490   0.59480
C          C       0.21880   0.73510   0.09480
C          C       0.21880   0.26490   0.59480
N          N       0.98040   0.76900   0.31090
N          N       0.98040   0.23100   0.81090
N          N       0.48040   0.26900   0.31090
N          N       0.48040   0.73100   0.81090
C          C       0.83090   0.35870   0.17670
C          C       0.83090   0.64130   0.67670
C          C       0.33090   0.85870   0.17670
C          C       0.33090   0.14130   0.67670
H          H       0.84580   0.38120   0.18940
H          H       0.84580   0.61880   0.68940
H          H       0.34580   0.88120   0.18940
H          H       0.34580   0.11880   0.68940
C          C       0.40440   0.68530   0.20060
C          C       0.40440   0.31470   0.70060
C          C       0.90440   0.18530   0.20060
C          C       0.90440   0.81470   0.70060
C          C       0.62410   0.88220   0.41730
C          C       0.62410   0.11780   0.91730
C          C       0.12410   0.38220   0.41730
C          C       0.12410   0.61780   0.91730
H          H       0.62430   0.83830   0.41580
H          H       0.62430   0.16170   0.91580
H          H       0.12430   0.33830   0.41580
H          H       0.12430   0.66170   0.91580
C          C       0.64510   0.91210   0.43798
C          C       0.64510   0.08790   0.93798
C          C       0.14510   0.41210   0.43798
C          C       0.14510   0.58790   0.93798
H          H       0.65960   0.88860   0.45060
H          H       0.65960   0.11140   0.95060
H          H       0.15960   0.38860   0.45060
H          H       0.15960   0.61140   0.95060
C          C       0.64480   0.97640   0.44021
C          C       0.64480   0.02360   0.94021
C          C       0.14480   0.47640   0.44021
C          C       0.14480   0.52360   0.94021
C          C       0.62350   0.01080   0.42180
C          C       0.62350   0.98920   0.92180
C          C       0.12350   0.51080   0.42180
C          C       0.12350   0.48920   0.92180
H          H       0.62330   0.05480   0.42330
H          H       0.62330   0.94520   0.92330
H          H       0.12330   0.55480   0.42330
H          H       0.12330   0.44520   0.92330
C          C       0.60250   0.98100   0.40115
C          C       0.60250   0.01900   0.90115
C          C       0.10250   0.48100   0.40115
C          C       0.10250   0.51900   0.90115
H          H       0.58800   0.00450   0.38860
H          H       0.58800   0.99550   0.88860
H          H       0.08800   0.50450   0.38860
H          H       0.08800   0.49550   0.88860
C          C       0.60280   0.91670   0.39892
C          C       0.60280   0.08330   0.89892
C          C       0.10280   0.41670   0.39892
C          C       0.10280   0.58330   0.89892
C          C       0.43510   0.70590   0.19060
C          C       0.43510   0.29410   0.69060
C          C       0.93510   0.20590   0.19060
C          C       0.93510   0.79410   0.69060
C          C       0.76520   0.27310   0.09410
C          C       0.76520   0.72690   0.59410
C          C       0.26520   0.77310   0.09410
C          C       0.26520   0.22690   0.59410
C          C       0.15120   0.22670   0.43690
C          C       0.15120   0.77330   0.93690
C          C       0.65120   0.72670   0.43690
C          C       0.65120   0.27330   0.93690
C          C       0.13920   0.90620   0.10040
C          C       0.13920   0.09380   0.60040
C          C       0.63920   0.40620   0.10040
C          C       0.63920   0.59380   0.60040
C          C       0.76180   0.31140   0.22560
C          C       0.76180   0.68860   0.72560
C          C       0.26180   0.81140   0.22560
C          C       0.26180   0.18860   0.72560
C          C       0.65000   0.18390   0.17460
C          C       0.65000   0.81610   0.67460
C          C       0.15000   0.68390   0.17460
C          C       0.15000   0.31610   0.67460
H          H       0.63490   0.16680   0.18780
H          H       0.63490   0.83320   0.68780
H          H       0.13490   0.66680   0.18780
H          H       0.13490   0.33320   0.68780
C          C       0.38200   0.65880   0.17723
C          C       0.38200   0.34120   0.67723
C          C       0.88200   0.15880   0.17723
C          C       0.88200   0.84120   0.67723
C          C       0.35260   0.68660   0.17060
C          C       0.35260   0.31340   0.67060
C          C       0.85260   0.18660   0.17060
C          C       0.85260   0.81340   0.67060
H          H       0.34700   0.72380   0.18070
H          H       0.34700   0.27620   0.68070
H          H       0.84700   0.22380   0.18070
H          H       0.84700   0.77620   0.68070
C          C       0.33130   0.66000   0.14910
C          C       0.33130   0.34000   0.64910
C          C       0.83130   0.16000   0.14910
C          C       0.83130   0.84000   0.64910
H          H       0.31120   0.67900   0.14460
H          H       0.31120   0.32100   0.64460
H          H       0.81120   0.17900   0.14460
H          H       0.81120   0.82100   0.64460
C          C       0.33940   0.60570   0.13430
C          C       0.33940   0.39430   0.63430
C          C       0.83940   0.10570   0.13430
C          C       0.83940   0.89430   0.63430
C          C       0.36880   0.57780   0.14090
C          C       0.36880   0.42220   0.64090
C          C       0.86880   0.07780   0.14090
C          C       0.86880   0.92220   0.64090
H          H       0.37430   0.54070   0.13080
H          H       0.37430   0.45930   0.63080
H          H       0.87430   0.04070   0.13080
H          H       0.87430   0.95930   0.63080
C          C       0.39005   0.60440   0.16240
C          C       0.39005   0.39560   0.66240
C          C       0.89005   0.10440   0.16240
C          C       0.89005   0.89560   0.66240
H          H       0.41010   0.58540   0.16690
H          H       0.41010   0.41460   0.66690
H          H       0.91010   0.08540   0.16690
H          H       0.91010   0.91460   0.66690
C          C       0.31580   0.57610   0.11120
C          C       0.31580   0.42390   0.61120
C          C       0.81580   0.07610   0.11120
C          C       0.81580   0.92390   0.61120
C          C       0.29500   0.61380   0.09390
C          C       0.29500   0.38620   0.59390
C          C       0.79500   0.11380   0.09390
C          C       0.79500   0.88620   0.59390
H          H       0.29590   0.65760   0.09630
H          H       0.29590   0.34240   0.59630
H          H       0.79590   0.15760   0.09630
H          H       0.79590   0.84240   0.59630
C          C       0.27290   0.58750   0.07320
C          C       0.27290   0.41250   0.57320
C          C       0.77290   0.08750   0.07320
C          C       0.77290   0.91250   0.57320
H          H       0.25870   0.61320   0.06130
H          H       0.25870   0.38680   0.56130
H          H       0.75870   0.11320   0.06130
H          H       0.75870   0.88680   0.56130
C          C       0.27160   0.52340   0.06970
C          C       0.27160   0.47660   0.56970
C          C       0.77160   0.02340   0.06970
C          C       0.77160   0.97660   0.56970
C          C       0.29230   0.48570   0.08690
C          C       0.29230   0.51430   0.58690
C          C       0.79230   0.98570   0.08690
C          C       0.79230   0.01430   0.58690
H          H       0.29140   0.44190   0.08460
H          H       0.29140   0.55810   0.58460
H          H       0.79140   0.94190   0.08460
H          H       0.79140   0.05810   0.58460
C          C       0.31450   0.51200   0.10770
C          C       0.31450   0.48800   0.60770
C          C       0.81450   0.01200   0.10770
C          C       0.81450   0.98800   0.60770
H          H       0.32870   0.48630   0.11950
H          H       0.32870   0.51370   0.61950
H          H       0.82870   0.98630   0.11950
H          H       0.82870   0.01370   0.61950
C          C       0.26690   0.32500   0.40510
C          C       0.26690   0.67500   0.90510
C          C       0.76690   0.82500   0.40510
C          C       0.76690   0.17500   0.90510
O          O       0.68450   0.97560   0.48110
O          O       0.68450   0.02440   0.98110
O          O       0.18450   0.47560   0.48110
O          O       0.18450   0.52440   0.98110
C          C       0.60220   0.09270   0.01394
C          C       0.60220   0.90730   0.51394
C          C       0.10220   0.59270   0.01394
C          C       0.10220   0.40730   0.51394
C          C       0.58100   0.12760   0.99560
C          C       0.58100   0.87240   0.49560
C          C       0.08100   0.62760   0.99560
C          C       0.08100   0.37240   0.49560
H          H       0.58070   0.17150   0.99750
H          H       0.58070   0.82850   0.49750
H          H       0.08070   0.67150   0.99750
H          H       0.08070   0.32850   0.49750
C          C       0.56030   0.09830   0.97450
C          C       0.56030   0.90170   0.47450
C          C       0.06030   0.59830   0.97450
C          C       0.06030   0.40170   0.47450
H          H       0.54590   0.12210   0.96200
H          H       0.54590   0.87790   0.46200
H          H       0.04590   0.62210   0.96200
H          H       0.04590   0.37790   0.46200
C          C       0.56080   0.03410   0.97170
C          C       0.56080   0.96590   0.47170
C          C       0.06080   0.53410   0.97170
C          C       0.06080   0.46590   0.47170
C          C       0.58200   0.99920   0.99010
C          C       0.58200   0.00080   0.49010
C          C       0.08200   0.49920   0.99010
C          C       0.08200   0.50080   0.49010
H          H       0.58230   0.95530   0.98820
H          H       0.58230   0.04470   0.48820
H          H       0.08230   0.45530   0.98820
H          H       0.08230   0.54470   0.48820
C          C       0.60260   0.02850   0.01120
C          C       0.60260   0.97150   0.51120
C          C       0.10260   0.52850   0.01120
C          C       0.10260   0.47150   0.51120
H          H       0.61710   0.00470   0.02370
H          H       0.61710   0.99530   0.52370
H          H       0.11710   0.50470   0.02370
H          H       0.11710   0.49530   0.52370
C          C       0.95710   0.41360   0.95200
C          C       0.95710   0.58640   0.45200
C          C       0.45710   0.91360   0.95200
C          C       0.45710   0.08640   0.45200
O          O       0.23110   0.63330   0.47960
O          O       0.23110   0.36670   0.97960
O          O       0.73110   0.13330   0.47960
O          O       0.73110   0.86670   0.97960
N          N       0.50590   0.77250   0.25660
N          N       0.50590   0.22750   0.75660
N          N       0.00590   0.27250   0.25660
N          N       0.00590   0.72750   0.75660
C          C       0.36670   0.66770   0.27200
C          C       0.36670   0.33230   0.77200
C          C       0.86670   0.16770   0.27200
C          C       0.86670   0.83230   0.77200
H          H       0.35020   0.65600   0.28500
H          H       0.35020   0.34400   0.78500
H          H       0.85020   0.15600   0.28500
H          H       0.85020   0.84400   0.78500
O          O       0.15480   0.87990   0.08160
O          O       0.15480   0.12010   0.58160
O          O       0.65480   0.37990   0.08160
O          O       0.65480   0.62010   0.58160
C          C       0.99810   0.78010   0.28510
C          C       0.99810   0.21990   0.78510
C          C       0.49810   0.28010   0.28510
C          C       0.49810   0.71990   0.78510
C          C       0.48370   0.78380   0.31960
C          C       0.48370   0.21620   0.81960
C          C       0.98370   0.28380   0.31960
C          C       0.98370   0.71620   0.81960
C          C       0.29390   0.35030   0.36380
C          C       0.29390   0.64970   0.86380
C          C       0.79390   0.85030   0.36380
C          C       0.79390   0.14970   0.86380
H          H       0.30970   0.36450   0.35060
H          H       0.30970   0.63550   0.85060
H          H       0.80970   0.86450   0.35060
H          H       0.80970   0.13550   0.85060
C          C       0.66670   0.01120   0.46380
C          C       0.66670   0.98880   0.96380
C          C       0.16670   0.51120   0.46380
C          C       0.16670   0.48880   0.96380
C          C       0.85880   0.40700   0.28244
C          C       0.85880   0.59300   0.78244
C          C       0.35880   0.90700   0.28244
C          C       0.35880   0.09300   0.78244
C          C       0.86541   0.35210   0.26730
C          C       0.86541   0.64790   0.76730
C          C       0.36541   0.85210   0.26730
C          C       0.36541   0.14790   0.76730
H          H       0.88510   0.33130   0.27150
H          H       0.88510   0.66870   0.77150
H          H       0.38510   0.83130   0.27150
H          H       0.38510   0.16870   0.77150
C          C       0.84320   0.32770   0.24600
C          C       0.84320   0.67230   0.74600
C          C       0.34320   0.82770   0.24600
C          C       0.34320   0.17230   0.74600
H          H       0.84780   0.29020   0.23560
H          H       0.84780   0.70980   0.73560
H          H       0.34780   0.79020   0.23560
H          H       0.34780   0.20980   0.73560
C          C       0.81449   0.35820   0.23981
C          C       0.81449   0.64180   0.73981
C          C       0.31449   0.85820   0.23981
C          C       0.31449   0.14180   0.73981
C          C       0.80789   0.41310   0.25500
C          C       0.80789   0.58690   0.75500
C          C       0.30789   0.91310   0.25500
C          C       0.30789   0.08690   0.75500
H          H       0.78820   0.43390   0.25080
H          H       0.78820   0.56610   0.75080
H          H       0.28820   0.93390   0.25080
H          H       0.28820   0.06610   0.75080
C          C       0.83010   0.43740   0.27630
C          C       0.83010   0.56260   0.77630
C          C       0.33010   0.93740   0.27630
C          C       0.33010   0.06260   0.77630
H          H       0.82560   0.47490   0.28660
H          H       0.82560   0.52510   0.78660
H          H       0.32560   0.97490   0.28660
H          H       0.32560   0.02510   0.78660
C          C       0.93310   0.39620   0.97520
C          C       0.93310   0.60380   0.47520
C          C       0.43310   0.89620   0.97520
C          C       0.43310   0.10380   0.47520
C          C       0.91270   0.43990   0.98710
C          C       0.91270   0.56010   0.48710
C          C       0.41270   0.93990   0.98710
C          C       0.41270   0.06010   0.48710
H          H       0.91380   0.48200   0.98070
H          H       0.91380   0.51800   0.48070
H          H       0.41380   0.98200   0.98070
H          H       0.41380   0.01800   0.48070
C          C       0.89070   0.42220   0.00820
C          C       0.89070   0.57780   0.50820
C          C       0.39070   0.92220   0.00820
C          C       0.39070   0.07780   0.50820
H          H       0.87680   0.45210   0.01630
H          H       0.87680   0.54790   0.51630
H          H       0.37680   0.95210   0.01630
H          H       0.37680   0.04790   0.51630
C          C       0.88910   0.36060   0.01749
C          C       0.88910   0.63940   0.51749
C          C       0.38910   0.86060   0.01749
C          C       0.38910   0.13940   0.51749
C          C       0.90950   0.31690   0.00560
C          C       0.90950   0.68310   0.50560
C          C       0.40950   0.81690   0.00560
C          C       0.40950   0.18310   0.50560
H          H       0.90840   0.27480   0.01190
H          H       0.90840   0.72520   0.51190
H          H       0.40840   0.77480   0.01190
H          H       0.40840   0.22520   0.51190
C          C       0.93140   0.33460   0.98450
C          C       0.93140   0.66540   0.48450
C          C       0.43140   0.83460   0.98450
C          C       0.43140   0.16540   0.48450
H          H       0.94530   0.30470   0.97630
H          H       0.94530   0.69530   0.47630
H          H       0.44530   0.80470   0.97630
H          H       0.44530   0.19530   0.47630
C          C       0.29360   0.35900   0.39450
C          C       0.29360   0.64100   0.89450
C          C       0.79360   0.85900   0.39450
C          C       0.79360   0.14100   0.89450
H          H       0.30820   0.38320   0.40660
H          H       0.30820   0.61680   0.90660
H          H       0.80820   0.88320   0.40660
H          H       0.80820   0.11680   0.90660
C          C       0.14240   0.20220   0.40710
C          C       0.14240   0.79780   0.90710
C          C       0.64240   0.70220   0.40710
C          C       0.64240   0.29780   0.90710
C          C       0.26590   0.31550   0.35490
C          C       0.26590   0.68450   0.85490
C          C       0.76590   0.81550   0.35490
C          C       0.76590   0.18450   0.85490
C          C       0.86370   0.33880   0.03818
C          C       0.86370   0.66120   0.53818
C          C       0.36370   0.83880   0.03818
C          C       0.36370   0.16120   0.53818
C          C       0.87048   0.29460   0.06060
C          C       0.87048   0.70540   0.56060
C          C       0.37048   0.79460   0.06060
C          C       0.37048   0.20540   0.56060
H          H       0.89040   0.27380   0.06140
H          H       0.89040   0.72620   0.56140
H          H       0.39040   0.77380   0.06140
H          H       0.39040   0.22620   0.56140
C          C       0.84810   0.28080   0.08204
C          C       0.84810   0.71920   0.58204
C          C       0.34810   0.78080   0.08204
C          C       0.34810   0.21920   0.58204
H          H       0.85270   0.25050   0.09740
H          H       0.85270   0.74950   0.59740
H          H       0.35270   0.75050   0.09740
H          H       0.35270   0.24950   0.59740
C          C       0.81885   0.31120   0.08097
C          C       0.81885   0.68880   0.58097
C          C       0.31885   0.81120   0.08097
C          C       0.31885   0.18880   0.58097
C          C       0.81206   0.35550   0.05850
C          C       0.81206   0.64450   0.55850
C          C       0.31206   0.85550   0.05850
C          C       0.31206   0.14450   0.55850
H          H       0.79210   0.37630   0.05780
H          H       0.79210   0.62370   0.55780
H          H       0.29210   0.87630   0.05780
H          H       0.29210   0.12370   0.55780
C          C       0.83450   0.36930   0.03711
C          C       0.83450   0.63070   0.53711
C          C       0.33450   0.86930   0.03711
C          C       0.33450   0.13070   0.53711
H          H       0.82980   0.39950   0.02180
H          H       0.82980   0.60050   0.52180
H          H       0.32980   0.89950   0.02180
H          H       0.32980   0.10050   0.52180
C          C       0.36640   0.66050   0.24110
C          C       0.36640   0.33950   0.74110
C          C       0.86640   0.16050   0.24110
C          C       0.86640   0.83950   0.74110
H          H       0.34970   0.64330   0.22840
H          H       0.34970   0.35670   0.72840
H          H       0.84970   0.14330   0.22840
H          H       0.84970   0.85670   0.72840
C          C       0.80230   0.33130   0.18440
C          C       0.80230   0.66870   0.68440
C          C       0.30230   0.83130   0.18440
C          C       0.30230   0.16870   0.68440
C          C       0.37350   0.51720   0.54780
C          C       0.37350   0.48280   0.04780
C          C       0.87350   0.01720   0.54780
C          C       0.87350   0.98280   0.04780
H          H       0.37630   0.56080   0.54960
H          H       0.37630   0.43920   0.04960
H          H       0.87630   0.06080   0.54960
H          H       0.87630   0.93920   0.04960
C          C       0.35090   0.49330   0.52680
C          C       0.35090   0.50670   0.02680
C          C       0.85090   0.99330   0.52680
C          C       0.85090   0.00670   0.02680
H          H       0.33830   0.52050   0.51420
H          H       0.33830   0.47950   0.01420
H          H       0.83830   0.02050   0.51420
H          H       0.83830   0.97950   0.01420
C          C       0.34680   0.42950   0.52413
C          C       0.34680   0.57050   0.02413
C          C       0.84680   0.92950   0.52413
C          C       0.84680   0.07050   0.02413
C          C       0.36530   0.38960   0.54260
C          C       0.36530   0.61040   0.04260
C          C       0.86530   0.88960   0.54260
C          C       0.86530   0.11040   0.04260
H          H       0.36250   0.34600   0.54080
H          H       0.36250   0.65400   0.04080
H          H       0.86250   0.84600   0.54080
H          H       0.86250   0.15400   0.04080
C          C       0.38780   0.41350   0.56363
C          C       0.38780   0.58650   0.06363
C          C       0.88780   0.91350   0.56363
C          C       0.88780   0.08650   0.06363
H          H       0.40040   0.38630   0.57620
H          H       0.40040   0.61370   0.07620
H          H       0.90040   0.88630   0.57620
H          H       0.90040   0.11370   0.07620
C          C       0.39190   0.47730   0.56627
C          C       0.39190   0.52270   0.06627
C          C       0.89190   0.97730   0.56627
C          C       0.89190   0.02270   0.06627
C          C       0.47460   0.77720   0.35170
C          C       0.47460   0.22280   0.85170
C          C       0.97460   0.27720   0.35170
C          C       0.97460   0.72280   0.85170
H          H       0.48710   0.79060   0.36910
H          H       0.48710   0.20940   0.86910
H          H       0.98710   0.29060   0.36910
H          H       0.98710   0.70940   0.86910
C          C       0.11520   0.16040   0.36820
C          C       0.11520   0.83960   0.86820
C          C       0.61520   0.66040   0.36820
C          C       0.61520   0.33960   0.86820
H          H       0.09930   0.14000   0.35570
H          H       0.09930   0.86000   0.85570
H          H       0.59930   0.64000   0.35570
H          H       0.59930   0.36000   0.85570
C          C       0.25620   0.32400   0.43530
C          C       0.25620   0.67600   0.93530
C          C       0.75620   0.82400   0.43530
C          C       0.75620   0.17600   0.93530
C          C       0.51320   0.77170   0.20020
C          C       0.51320   0.22830   0.70020
C          C       0.01320   0.27170   0.20020
C          C       0.01320   0.72830   0.70020
C          C       0.14380   0.18820   0.35710
C          C       0.14380   0.81180   0.85710
C          C       0.64380   0.68820   0.35710
C          C       0.64380   0.31180   0.85710
C          C       0.43630   0.73670   0.32210
C          C       0.43630   0.26330   0.82210
C          C       0.93630   0.23670   0.32210
C          C       0.93630   0.76330   0.82210
C          C       0.38190   0.69770   0.33420
C          C       0.38190   0.30230   0.83420
C          C       0.88190   0.19770   0.33420
C          C       0.88190   0.80230   0.83420
C          C       0.35570   0.73470   0.34000
C          C       0.35570   0.26530   0.84000
C          C       0.85570   0.23470   0.34000
C          C       0.85570   0.76530   0.84000
H          H       0.35160   0.77100   0.32820
H          H       0.35160   0.22900   0.82820
H          H       0.85160   0.27100   0.32820
H          H       0.85160   0.72900   0.82820
C          C       0.33560   0.71850   0.36310
C          C       0.33560   0.28150   0.86310
C          C       0.83560   0.21850   0.36310
C          C       0.83560   0.78150   0.86310
H          H       0.31770   0.74380   0.36700
H          H       0.31770   0.25620   0.86700
H          H       0.81770   0.24380   0.36700
H          H       0.81770   0.75620   0.86700
C          C       0.34160   0.66540   0.38040
C          C       0.34160   0.33460   0.88040
C          C       0.84160   0.16540   0.38040
C          C       0.84160   0.83460   0.88040
C          C       0.36780   0.62840   0.37460
C          C       0.36780   0.37160   0.87460
C          C       0.86780   0.12840   0.37460
C          C       0.86780   0.87160   0.87460
H          H       0.37190   0.59210   0.38640
H          H       0.37190   0.40790   0.88640
H          H       0.87190   0.09210   0.38640
H          H       0.87190   0.90790   0.88640
C          C       0.38790   0.64450   0.35150
C          C       0.38790   0.35550   0.85150
C          C       0.88790   0.14450   0.35150
C          C       0.88790   0.85550   0.85150
H          H       0.40580   0.61920   0.34750
H          H       0.40580   0.38080   0.84750
H          H       0.90580   0.11920   0.34750
H          H       0.90580   0.88080   0.84750
C          C       0.67780   0.21830   0.18430
C          C       0.67780   0.78170   0.68430
C          C       0.17780   0.71830   0.18430
C          C       0.17780   0.28170   0.68430
C          C       0.75740   0.25500   0.06250
C          C       0.75740   0.74500   0.56250
C          C       0.25740   0.75500   0.06250
C          C       0.25740   0.24500   0.56250
H          H       0.77120   0.25530   0.04580
H          H       0.77120   0.74470   0.54580
H          H       0.27120   0.75530   0.04580
H          H       0.27120   0.24470   0.54580
C          C       0.91630   0.67570   0.24820
C          C       0.91630   0.32430   0.74820
C          C       0.41630   0.17570   0.24820
C          C       0.41630   0.82430   0.74820
C          C       0.21570   0.31240   0.47670
C          C       0.21570   0.68760   0.97670
C          C       0.71570   0.81240   0.47670
C          C       0.71570   0.18760   0.97670
H          H       0.22680   0.33070   0.49380
H          H       0.22680   0.66930   0.99380
H          H       0.72680   0.83070   0.49380
H          H       0.72680   0.16930   0.99380
C          C       0.18610   0.28730   0.47560
C          C       0.18610   0.71270   0.97560
C          C       0.68610   0.78730   0.47560
C          C       0.68610   0.21270   0.97560
H          H       0.17160   0.28930   0.49160
H          H       0.17160   0.71070   0.99160
H          H       0.67160   0.78930   0.49160
H          H       0.67160   0.21070   0.99160
C          C       0.83200   0.34520   0.14640
C          C       0.83200   0.65480   0.64640
C          C       0.33200   0.84520   0.14640
C          C       0.33200   0.15480   0.64640
H          H       0.84960   0.35440   0.13430
H          H       0.84960   0.64560   0.63430
H          H       0.34960   0.85440   0.13430
H          H       0.34960   0.14560   0.63430
C          C       0.06450   0.01900   0.23010
C          C       0.06450   0.98100   0.73010
C          C       0.56450   0.51900   0.23010
C          C       0.56450   0.48100   0.73010
H          H       0.08060   0.99340   0.23930
H          H       0.08060   0.00660   0.73930
H          H       0.58060   0.49340   0.23930
H          H       0.58060   0.50660   0.73930
C          C       0.06340   0.08180   0.23720
C          C       0.06340   0.91820   0.73720
C          C       0.56340   0.58180   0.23720
C          C       0.56340   0.41820   0.73720
C          C       0.03970   0.11920   0.22370
C          C       0.03970   0.88080   0.72370
C          C       0.53970   0.61920   0.22370
C          C       0.53970   0.38080   0.72370
H          H       0.03900   0.16210   0.22860
H          H       0.03900   0.83790   0.72860
H          H       0.53900   0.66210   0.22860
H          H       0.53900   0.33790   0.72860
C          C       0.01720   0.09400   0.20310
C          C       0.01720   0.90600   0.70310
C          C       0.51720   0.59400   0.20310
C          C       0.51720   0.40600   0.70310
H          H       0.00110   0.11960   0.19380
H          H       0.00110   0.88040   0.69380
H          H       0.50110   0.61960   0.19380
H          H       0.50110   0.38040   0.69380
C          C       0.01830   0.03120   0.19590
C          C       0.01830   0.96880   0.69590
C          C       0.51830   0.53120   0.19590
C          C       0.51830   0.46880   0.69590
C          C       0.04190   0.99370   0.20940
C          C       0.04190   0.00630   0.70940
C          C       0.54190   0.49370   0.20940
C          C       0.54190   0.50630   0.70940
H          H       0.04270   0.95090   0.20450
H          H       0.04270   0.04910   0.70450
H          H       0.54270   0.45090   0.20450
H          H       0.54270   0.54910   0.70450
C          C       0.79080   0.33150   0.21550
C          C       0.79080   0.66850   0.71550
C          C       0.29080   0.83150   0.21550
C          C       0.29080   0.16850   0.71550
C          C       0.40760   0.71140   0.31110
C          C       0.40760   0.28860   0.81110
C          C       0.90760   0.21140   0.31110
C          C       0.90760   0.78860   0.81110
C          C       0.52160   0.79720   0.27880
C          C       0.52160   0.20280   0.77880
C          C       0.02160   0.29720   0.27880
C          C       0.02160   0.70280   0.77880
C          C       0.57630   0.82380   0.13050
C          C       0.57630   0.17620   0.63050
C          C       0.07630   0.32380   0.13050
C          C       0.07630   0.67620   0.63050
C          C       0.55060   0.86190   0.13670
C          C       0.55060   0.13810   0.63670
C          C       0.05060   0.36190   0.13670
C          C       0.05060   0.63810   0.63670
H          H       0.54720   0.89930   0.12560
H          H       0.54720   0.10070   0.62560
H          H       0.04720   0.39930   0.12560
H          H       0.04720   0.60070   0.62560
C          C       0.53000   0.84520   0.15920
C          C       0.53000   0.15480   0.65920
C          C       0.03000   0.34520   0.15920
C          C       0.03000   0.65480   0.65920
H          H       0.51240   0.87120   0.16340
H          H       0.51240   0.12880   0.66340
H          H       0.01240   0.37120   0.16340
H          H       0.01240   0.62880   0.66340
C          C       0.53490   0.79040   0.17550
C          C       0.53490   0.20960   0.67550
C          C       0.03490   0.29040   0.17550
C          C       0.03490   0.70960   0.67550
C          C       0.56050   0.75230   0.16930
C          C       0.56050   0.24770   0.66930
C          C       0.06050   0.25230   0.16930
C          C       0.06050   0.74770   0.66930
H          H       0.56390   0.71490   0.18040
H          H       0.56390   0.28510   0.68040
H          H       0.06390   0.21490   0.18040
H          H       0.06390   0.78510   0.68040
C          C       0.58120   0.76910   0.14680
C          C       0.58120   0.23090   0.64680
C          C       0.08120   0.26910   0.14680
C          C       0.08120   0.73090   0.64680
H          H       0.59870   0.74300   0.14250
H          H       0.59870   0.25700   0.64250
H          H       0.09870   0.24300   0.14250
H          H       0.09870   0.75700   0.64250
C          C       0.84460   0.64290   0.32840
C          C       0.84460   0.35710   0.82840
C          C       0.34460   0.14290   0.32840
C          C       0.34460   0.85710   0.82840
H          H       0.82830   0.62770   0.34070
H          H       0.82830   0.37230   0.84070
H          H       0.32830   0.12770   0.34070
H          H       0.32830   0.87230   0.84070
C          C       0.84640   0.63880   0.29800
C          C       0.84640   0.36120   0.79800
C          C       0.34640   0.13880   0.29800
C          C       0.34640   0.86120   0.79800
H          H       0.82910   0.62260   0.28580
H          H       0.82910   0.37740   0.78580
H          H       0.32910   0.12260   0.28580
H          H       0.32910   0.87740   0.78580
C          C       0.06550   0.15640   0.52981
C          C       0.06550   0.84360   0.02981
C          C       0.56550   0.65640   0.52981
C          C       0.56550   0.34360   0.02981
C          C       0.04230   0.19610   0.54040
C          C       0.04230   0.80390   0.04040
C          C       0.54230   0.69610   0.54040
C          C       0.54230   0.30390   0.04040
H          H       0.04120   0.23780   0.53350
H          H       0.04120   0.76220   0.03350
H          H       0.54120   0.73780   0.53350
H          H       0.54120   0.26220   0.03350
C          C       0.02080   0.17470   0.56130
C          C       0.02080   0.82530   0.06130
C          C       0.52080   0.67470   0.56130
C          C       0.52080   0.32530   0.06130
H          H       0.00500   0.20180   0.56850
H          H       0.00500   0.79820   0.06850
H          H       0.50500   0.70180   0.56850
H          H       0.50500   0.29820   0.06850
C          C       0.02250   0.11370   0.57140
C          C       0.02250   0.88630   0.07140
C          C       0.52250   0.61370   0.57140
C          C       0.52250   0.38630   0.07140
C          C       0.04560   0.07400   0.56080
C          C       0.04560   0.92600   0.06080
C          C       0.54560   0.57400   0.56080
C          C       0.54560   0.42600   0.06080
H          H       0.04670   0.03230   0.56780
H          H       0.04670   0.96770   0.06780
H          H       0.54670   0.53230   0.56780
H          H       0.54670   0.46770   0.06780
C          C       0.06710   0.09540   0.54000
C          C       0.06710   0.90460   0.04000
C          C       0.56710   0.59540   0.54000
C          C       0.56710   0.40460   0.04000
H          H       0.08290   0.06830   0.53270
H          H       0.08290   0.93170   0.03270
H          H       0.58290   0.56830   0.53270
H          H       0.58290   0.43170   0.03270
C          C       0.18150   0.21840   0.31530
C          C       0.18150   0.78160   0.81530
C          C       0.68150   0.71840   0.31530
C          C       0.68150   0.28160   0.81530
C          C       0.55170   0.82720   0.27130
C          C       0.55170   0.17280   0.77130
C          C       0.05170   0.32720   0.27130
C          C       0.05170   0.67280   0.77130
H          H       0.56770   0.84500   0.28460
H          H       0.56770   0.15500   0.78460
H          H       0.06770   0.34500   0.28460
H          H       0.06770   0.65500   0.78460
C          C       0.72600   0.23730   0.06200
C          C       0.72600   0.76270   0.56200
C          C       0.22600   0.73730   0.06200
C          C       0.22600   0.26270   0.56200
H          H       0.71210   0.22860   0.04470
H          H       0.71210   0.77140   0.54470
H          H       0.21210   0.72860   0.04470
H          H       0.21210   0.27140   0.54470
C          C       0.72400   0.49530   0.09980
C          C       0.72400   0.50470   0.59980
C          C       0.22400   0.99530   0.09980
C          C       0.22400   0.00470   0.59980
C          C       0.39730   0.69720   0.28180
C          C       0.39730   0.30280   0.78180
C          C       0.89730   0.19720   0.28180
C          C       0.89730   0.80280   0.78180
C          C       0.68720   0.21680   0.10260
C          C       0.68720   0.78320   0.60260
C          C       0.18720   0.71680   0.10260
C          C       0.18720   0.28320   0.60260
C          C       0.25840   0.29020   0.32380
C          C       0.25840   0.70980   0.82380
C          C       0.75840   0.79020   0.32380
C          C       0.75840   0.20980   0.82380
C          C       0.80400   0.31630   0.13540
C          C       0.80400   0.68370   0.63540
C          C       0.30400   0.81630   0.13540
C          C       0.30400   0.18370   0.63540
C          C       0.67770   0.20870   0.13460
C          C       0.67770   0.79130   0.63460
C          C       0.17770   0.70870   0.13460
C          C       0.17770   0.29130   0.63460
C          C       0.02490   0.81530   0.29380
C          C       0.02490   0.18470   0.79380
C          C       0.52490   0.31530   0.29380
C          C       0.52490   0.68470   0.79380
H          H       0.04290   0.82460   0.28220
H          H       0.04290   0.17540   0.78220
H          H       0.54290   0.32460   0.28220
H          H       0.54290   0.67540   0.78220
C          C       0.79550   0.29780   0.10470
C          C       0.79550   0.70220   0.60470
C          C       0.29550   0.79780   0.10470
C          C       0.29550   0.20220   0.60470
C          C       0.72320   0.28750   0.25690
C          C       0.72320   0.71250   0.75690
C          C       0.22320   0.78750   0.25690
C          C       0.22320   0.21250   0.75690
H          H       0.71110   0.27860   0.27420
H          H       0.71110   0.72140   0.77420
H          H       0.21110   0.77860   0.27420
H          H       0.21110   0.22140   0.77420
C          C       0.07130   0.83930   0.16150
C          C       0.07130   0.16070   0.66150
C          C       0.57130   0.33930   0.16150
C          C       0.57130   0.66070   0.66150
C          C       0.06710   0.89750   0.14830
C          C       0.06710   0.10250   0.64830
C          C       0.56710   0.39750   0.14830
C          C       0.56710   0.60250   0.64830
H          H       0.04920   0.92200   0.15300
H          H       0.04920   0.07800   0.65300
H          H       0.54920   0.42200   0.15300
H          H       0.54920   0.57800   0.65300
C          C       0.08920   0.92000   0.12830
C          C       0.08920   0.08000   0.62830
C          C       0.58920   0.42000   0.12830
C          C       0.58920   0.58000   0.62830
H          H       0.08630   0.95980   0.11930
H          H       0.08630   0.04020   0.61930
H          H       0.58630   0.45980   0.11930
H          H       0.58630   0.54020   0.61930
C          C       0.11540   0.88420   0.12150
C          C       0.11540   0.11580   0.62150
C          C       0.61540   0.38420   0.12150
C          C       0.61540   0.61580   0.62150
C          C       0.11970   0.82590   0.13470
C          C       0.11970   0.17410   0.63470
C          C       0.61970   0.32590   0.13470
C          C       0.61970   0.67410   0.63470
H          H       0.13760   0.80150   0.13000
H          H       0.13760   0.19850   0.63000
H          H       0.63760   0.30150   0.13000
H          H       0.63760   0.69850   0.63000
C          C       0.09760   0.80350   0.15470
C          C       0.09760   0.19650   0.65470
C          C       0.59760   0.30350   0.15470
C          C       0.59760   0.69650   0.65470
H          H       0.10050   0.76370   0.16370
H          H       0.10050   0.23630   0.66370
H          H       0.60050   0.26370   0.16370
H          H       0.60050   0.73630   0.66370
C          C       0.99470   0.80010   0.33730
C          C       0.99470   0.19990   0.83730
C          C       0.49470   0.30010   0.33730
C          C       0.49470   0.69990   0.83730
C          C       0.59880   0.16460   0.30680
C          C       0.59880   0.83540   0.80680
C          C       0.09880   0.66460   0.30680
C          C       0.09880   0.33540   0.80680
C          C       0.59810   0.10230   0.31490
C          C       0.59810   0.89770   0.81490
C          C       0.09810   0.60230   0.31490
C          C       0.09810   0.39770   0.81490
H          H       0.61160   0.07340   0.30540
H          H       0.61160   0.92660   0.80540
H          H       0.11160   0.57340   0.30540
H          H       0.11160   0.42660   0.80540
C          C       0.57750   0.08220   0.33690
C          C       0.57750   0.91780   0.83690
C          C       0.07750   0.58220   0.33690
C          C       0.07750   0.41780   0.83690
H          H       0.57700   0.03960   0.34240
H          H       0.57700   0.96040   0.84240
H          H       0.07700   0.53960   0.34240
H          H       0.07700   0.46040   0.84240
C          C       0.55770   0.12440   0.35070
C          C       0.55770   0.87560   0.85070
C          C       0.05770   0.62440   0.35070
C          C       0.05770   0.37560   0.85070
C          C       0.55850   0.18670   0.34260
C          C       0.55850   0.81330   0.84260
C          C       0.05850   0.68670   0.34260
C          C       0.05850   0.31330   0.84260
H          H       0.54500   0.21560   0.35210
H          H       0.54500   0.78440   0.85210
H          H       0.04500   0.71560   0.35210
H          H       0.04500   0.28440   0.85210
C          C       0.57910   0.20680   0.32070
C          C       0.57910   0.79320   0.82070
C          C       0.07910   0.70680   0.32070
C          C       0.07910   0.29320   0.82070
H          H       0.57960   0.24940   0.31510
H          H       0.57960   0.75060   0.81510
H          H       0.07960   0.74940   0.31510
H          H       0.07960   0.25060   0.81510
C          C       0.44540   0.70930   0.15930
C          C       0.44540   0.29070   0.65930
C          C       0.94540   0.20930   0.15930
C          C       0.94540   0.79070   0.65930
H          H       0.43340   0.69590   0.14160
H          H       0.43340   0.30410   0.64160
H          H       0.93340   0.19590   0.14160
H          H       0.93340   0.80410   0.64160
C          C       0.44530   0.74900   0.35270
C          C       0.44530   0.25100   0.85270
C          C       0.94530   0.24900   0.35270
C          C       0.94530   0.75100   0.85270
H          H       0.43370   0.73980   0.37030
H          H       0.43370   0.26020   0.87030
H          H       0.93370   0.23980   0.37030
H          H       0.93370   0.76020   0.87030
C          C       0.57930   0.88310   0.37650
C          C       0.57930   0.11690   0.87650
C          C       0.07930   0.38310   0.37650
C          C       0.07930   0.61690   0.87650
C          C       0.54940   0.90900   0.37040
C          C       0.54940   0.09100   0.87040
C          C       0.04940   0.40900   0.37040
C          C       0.04940   0.59100   0.87040
H          H       0.54350   0.94600   0.38050
H          H       0.54350   0.05400   0.88050
H          H       0.04350   0.44600   0.38050
H          H       0.04350   0.55400   0.88050
C          C       0.52809   0.88100   0.34940
C          C       0.52809   0.11900   0.84940
C          C       0.02809   0.38100   0.34940
C          C       0.02809   0.61900   0.84940
H          H       0.50760   0.89870   0.34530
H          H       0.50760   0.10130   0.84530
H          H       0.00760   0.39870   0.34530
H          H       0.00760   0.60130   0.84530
C          C       0.53670   0.82690   0.33456
C          C       0.53670   0.17310   0.83456
C          C       0.03670   0.32690   0.33456
C          C       0.03670   0.67310   0.83456
C          C       0.56660   0.80100   0.34070
C          C       0.56660   0.19900   0.84070
C          C       0.06660   0.30100   0.34070
C          C       0.06660   0.69900   0.84070
H          H       0.57250   0.76410   0.33050
H          H       0.57250   0.23590   0.83050
H          H       0.07250   0.26410   0.33050
H          H       0.07250   0.73590   0.83050
C          C       0.58795   0.82910   0.36160
C          C       0.58795   0.17090   0.86160
C          C       0.08795   0.32910   0.36160
C          C       0.08795   0.67090   0.86160
H          H       0.60840   0.81130   0.36580
H          H       0.60840   0.18870   0.86580
H          H       0.10840   0.31130   0.36580
H          H       0.10840   0.68870   0.86580
C          C       0.88370   0.68870   0.36800
C          C       0.88370   0.31130   0.86800
C          C       0.38370   0.18870   0.36800
C          C       0.38370   0.81130   0.86800
C          C       0.75230   0.31160   0.25700
C          C       0.75230   0.68840   0.75700
C          C       0.25230   0.81160   0.25700
C          C       0.25230   0.18840   0.75700
H          H       0.76460   0.32610   0.27430
H          H       0.76460   0.67390   0.77430
H          H       0.26460   0.82610   0.27430
H          H       0.26460   0.17390   0.77430
C          C       0.32388   0.40290   0.50116
C          C       0.32388   0.59710   0.00116
C          C       0.82388   0.90290   0.50116
C          C       0.82388   0.09710   0.00116
C          C       0.29550   0.43440   0.49434
C          C       0.29550   0.56560   0.99434
C          C       0.79550   0.93440   0.49434
C          C       0.79550   0.06560   0.99434
H          H       0.29150   0.47280   0.50410
H          H       0.29150   0.52720   0.00410
H          H       0.79150   0.97280   0.50410
H          H       0.79150   0.02720   0.00410
C          C       0.27320   0.40970   0.47329
C          C       0.27320   0.59030   0.97329
C          C       0.77320   0.90970   0.47329
C          C       0.77320   0.09030   0.97329
H          H       0.25380   0.43120   0.46860
H          H       0.25380   0.56880   0.96860
H          H       0.75380   0.93120   0.46860
H          H       0.75380   0.06880   0.96860
C          C       0.27919   0.35350   0.45907
C          C       0.27919   0.64650   0.95907
C          C       0.77919   0.85350   0.45907
C          C       0.77919   0.14650   0.95907
C          C       0.30750   0.32200   0.46590
C          C       0.30750   0.67800   0.96590
C          C       0.80750   0.82200   0.46590
C          C       0.80750   0.17800   0.96590
H          H       0.31160   0.28360   0.45620
H          H       0.31160   0.71640   0.95620
H          H       0.81160   0.78360   0.45620
H          H       0.81160   0.21640   0.95620
C          C       0.32987   0.34670   0.48690
C          C       0.32987   0.65330   0.98690
C          C       0.82987   0.84670   0.48690
C          C       0.82987   0.15330   0.98690
H          H       0.34920   0.32520   0.49160
H          H       0.34920   0.67480   0.99160
H          H       0.84920   0.82520   0.49160
H          H       0.84920   0.17480   0.99160
C          C       0.95980   0.76090   0.37800
C          C       0.95980   0.23910   0.87800
C          C       0.45980   0.26090   0.37800
C          C       0.45980   0.73910   0.87800
C          C       0.51470   0.79750   0.31050
C          C       0.51470   0.20250   0.81050
C          C       0.01470   0.29750   0.31050
C          C       0.01470   0.70250   0.81050
C          C       0.33245   0.29950   0.27870
C          C       0.33245   0.70050   0.77870
C          C       0.83245   0.79950   0.27870
C          C       0.83245   0.20050   0.77870
H          H       0.35310   0.28160   0.27940
H          H       0.35310   0.71840   0.77940
H          H       0.85310   0.78160   0.27940
H          H       0.85310   0.21840   0.77940
C          C       0.31080   0.28340   0.30042
C          C       0.31080   0.71660   0.80042
C          C       0.81080   0.78340   0.30042
C          C       0.81080   0.21660   0.80042
H          H       0.31670   0.25450   0.31600
H          H       0.31670   0.74550   0.81600
H          H       0.81670   0.75450   0.31600
H          H       0.81670   0.24550   0.81600
C          C       0.28050   0.30960   0.29933
C          C       0.28050   0.69040   0.79933
C          C       0.78050   0.80960   0.29933
C          C       0.78050   0.19040   0.79933
C          C       0.27190   0.35200   0.27650
C          C       0.27190   0.64800   0.77650
C          C       0.77190   0.85200   0.27650
C          C       0.77190   0.14800   0.77650
H          H       0.25120   0.36990   0.27570
H          H       0.25120   0.63010   0.77570
H          H       0.75120   0.86990   0.27570
H          H       0.75120   0.13010   0.77570
C          C       0.29350   0.36810   0.25472
C          C       0.29350   0.63190   0.75472
C          C       0.79350   0.86810   0.25472
C          C       0.79350   0.13190   0.75472
H          H       0.28760   0.39710   0.23910
H          H       0.28760   0.60290   0.73910
H          H       0.78760   0.89710   0.23910
H          H       0.78760   0.10290   0.73910
C          C       0.32380   0.34190   0.25580
C          C       0.32380   0.65810   0.75580
C          C       0.82380   0.84190   0.25580
C          C       0.82380   0.15810   0.75580
C          C       0.11420   0.16750   0.39850
C          C       0.11420   0.83250   0.89850
C          C       0.61420   0.66750   0.39850
C          C       0.61420   0.33250   0.89850
H          H       0.09830   0.15290   0.41150
H          H       0.09830   0.84710   0.91150
H          H       0.59830   0.65290   0.41150
H          H       0.59830   0.34710   0.91150
C          C       0.86650   0.62850   0.22940
C          C       0.86650   0.37150   0.72940
C          C       0.36650   0.12850   0.22940
C          C       0.36650   0.87150   0.72940
C          C       0.85350   0.66780   0.20690
C          C       0.85350   0.33220   0.70690
C          C       0.35350   0.16780   0.20690
C          C       0.35350   0.83220   0.70690
H          H       0.85990   0.71000   0.20640
H          H       0.85990   0.29000   0.70640
H          H       0.35990   0.21000   0.20640
H          H       0.35990   0.79000   0.70640
C          C       0.83120   0.64520   0.18530
C          C       0.83120   0.35480   0.68530
C          C       0.33120   0.14520   0.18530
C          C       0.33120   0.85480   0.68530
H          H       0.82230   0.67200   0.16990
H          H       0.82230   0.32800   0.66990
H          H       0.32230   0.17200   0.16990
H          H       0.32230   0.82800   0.66990
C          C       0.82190   0.58330   0.18610
C          C       0.82190   0.41670   0.68610
C          C       0.32190   0.08330   0.18610
C          C       0.32190   0.91670   0.68610
C          C       0.83490   0.54410   0.20860
C          C       0.83490   0.45590   0.70860
C          C       0.33490   0.04410   0.20860
C          C       0.33490   0.95590   0.70860
H          H       0.82860   0.50180   0.20910
H          H       0.82860   0.49820   0.70910
H          H       0.32860   0.00180   0.20910
H          H       0.32860   0.99820   0.70910
C          C       0.85720   0.56670   0.23020
C          C       0.85720   0.43330   0.73020
C          C       0.35720   0.06670   0.23020
C          C       0.35720   0.93330   0.73020
H          H       0.86610   0.53990   0.24560
H          H       0.86610   0.46010   0.74560
H          H       0.36610   0.03990   0.24560
H          H       0.36610   0.96010   0.74560
C          C       0.93010   0.67600   0.21870
C          C       0.93010   0.32400   0.71870
C          C       0.43010   0.17600   0.21870
C          C       0.43010   0.82400   0.71870
H          H       0.92010   0.65630   0.20140
H          H       0.92010   0.34370   0.70140
H          H       0.42010   0.15630   0.20140
H          H       0.42010   0.84370   0.70140
O          O       0.72140   0.43640   0.09580
O          O       0.72140   0.56360   0.59580
O          O       0.22140   0.93640   0.09580
O          O       0.22140   0.06360   0.59580
C          C       0.87390   0.65860   0.28480
C          C       0.87390   0.34140   0.78480
C          C       0.37390   0.15860   0.28480
C          C       0.37390   0.84140   0.78480
C          C       0.62720   0.91990   0.08060
C          C       0.62720   0.08010   0.58060
C          C       0.12720   0.41990   0.08060
C          C       0.12720   0.58010   0.58060
H          H       0.63070   0.96280   0.07700
H          H       0.63070   0.03720   0.57700
H          H       0.13070   0.46280   0.07700
H          H       0.13070   0.53720   0.57700
C          C       0.64380   0.87560   0.06480
C          C       0.64380   0.12440   0.56480
C          C       0.14380   0.37560   0.06480
C          C       0.14380   0.62440   0.56480
C          C       0.63870   0.81290   0.07010
C          C       0.63870   0.18710   0.57010
C          C       0.13870   0.31290   0.07010
C          C       0.13870   0.68710   0.57010
H          H       0.65010   0.78260   0.05920
H          H       0.65010   0.21740   0.55920
H          H       0.15010   0.28260   0.05920
H          H       0.15010   0.71740   0.55920
C          C       0.61690   0.79450   0.09120
C          C       0.61690   0.20550   0.59120
C          C       0.11690   0.29450   0.09120
C          C       0.11690   0.70550   0.59120
H          H       0.61340   0.75170   0.09480
H          H       0.61340   0.24830   0.59480
H          H       0.11340   0.25170   0.09480
H          H       0.11340   0.74830   0.59480
C          C       0.60020   0.83890   0.10710
C          C       0.60020   0.16110   0.60710
C          C       0.10020   0.33890   0.10710
C          C       0.10020   0.66110   0.60710
C          C       0.60530   0.90160   0.10180
C          C       0.60530   0.09840   0.60180
C          C       0.10530   0.40160   0.10180
C          C       0.10530   0.59840   0.60180
H          H       0.59390   0.93190   0.11260
H          H       0.59390   0.06810   0.61260
H          H       0.09390   0.43190   0.11260
H          H       0.09390   0.56810   0.61260
N          N       0.88900   0.68330   0.31140
N          N       0.88900   0.31670   0.81140
N          N       0.38900   0.18330   0.31140
N          N       0.38900   0.81670   0.81140
C          C       0.95750   0.70540   0.21730
C          C       0.95750   0.29460   0.71730
C          C       0.45750   0.20540   0.21730
C          C       0.45750   0.79460   0.71730
H          H       0.97130   0.70780   0.20080
H          H       0.97130   0.29220   0.70080
H          H       0.47130   0.20780   0.20080
H          H       0.47130   0.79220   0.70080
C          C       0.94700   0.76620   0.40730
C          C       0.94700   0.23380   0.90730
C          C       0.44700   0.26620   0.40730
C          C       0.44700   0.73380   0.90730
H          H       0.95600   0.79180   0.42310
H          H       0.95600   0.20820   0.92310
H          H       0.45600   0.29180   0.42310
H          H       0.45600   0.70820   0.92310
C          C       0.88530   0.65540   0.25570
C          C       0.88530   0.34460   0.75570
C          C       0.38530   0.15540   0.25570
C          C       0.38530   0.84460   0.75570
C          C       0.29750   0.69700   0.41650
C          C       0.29750   0.30300   0.91650
C          C       0.79750   0.19700   0.41650
C          C       0.79750   0.80300   0.91650
H          H       0.29850   0.73850   0.40950
H          H       0.29850   0.26150   0.90950
H          H       0.79850   0.23850   0.40950
H          H       0.79850   0.76150   0.90950
C          C       0.31750   0.65220   0.40500
C          C       0.31750   0.34780   0.90500
C          C       0.81750   0.15220   0.40500
C          C       0.81750   0.84780   0.90500
C          C       0.31600   0.59130   0.41530
C          C       0.31600   0.40870   0.91530
C          C       0.81600   0.09130   0.41530
C          C       0.81600   0.90870   0.91530
H          H       0.32970   0.56070   0.40750
H          H       0.32970   0.43930   0.90750
H          H       0.82970   0.06070   0.40750
H          H       0.82970   0.93930   0.90750
C          C       0.29440   0.57520   0.43710
C          C       0.29440   0.42480   0.93710
C          C       0.79440   0.07520   0.43710
C          C       0.79440   0.92480   0.93710
H          H       0.29340   0.53360   0.44420
H          H       0.29340   0.46640   0.94420
H          H       0.79340   0.03360   0.44420
H          H       0.79340   0.96640   0.94420
C          C       0.27440   0.62000   0.44860
C          C       0.27440   0.38000   0.94860
C          C       0.77440   0.12000   0.44860
C          C       0.77440   0.88000   0.94860
C          C       0.27590   0.68090   0.43830
C          C       0.27590   0.31910   0.93830
C          C       0.77590   0.18090   0.43830
C          C       0.77590   0.81910   0.93830
H          H       0.26220   0.71150   0.44620
H          H       0.26220   0.28850   0.94620
H          H       0.76220   0.21150   0.44620
H          H       0.76220   0.78850   0.94620
C          C       0.47410   0.73400   0.15970
C          C       0.47410   0.26600   0.65970
C          C       0.97410   0.23400   0.15970
C          C       0.97410   0.76600   0.65970
H          H       0.48540   0.74340   0.14200
H          H       0.48540   0.25660   0.64200
H          H       0.98540   0.24340   0.14200
H          H       0.98540   0.75660   0.64200
C          C       0.15400   0.18570   0.32560
C          C       0.15400   0.81430   0.82560
C          C       0.65400   0.68570   0.32560
C          C       0.65400   0.31430   0.82560
C          C       0.68470   0.24530   0.21290
C          C       0.68470   0.75470   0.71290
C          C       0.18470   0.74530   0.21290
C          C       0.18470   0.25470   0.71290
C          C       0.06280   0.77950   0.21010
C          C       0.06280   0.22050   0.71010
C          C       0.56280   0.27950   0.21010
C          C       0.56280   0.72050   0.71010
H          H       0.08480   0.76910   0.21220
H          H       0.08480   0.23090   0.71220
H          H       0.58480   0.26910   0.21220
H          H       0.58480   0.73090   0.71220
C          C       0.05130   0.81260   0.18470
C          C       0.05130   0.18740   0.68470
C          C       0.55130   0.31260   0.18470
C          C       0.55130   0.68740   0.68470
C          C       0.01910   0.82780   0.18160
C          C       0.01910   0.17220   0.68160
C          C       0.51910   0.32780   0.18160
C          C       0.51910   0.67220   0.68160
H          H       0.01120   0.85050   0.16430
H          H       0.01120   0.14950   0.66430
H          H       0.51120   0.35050   0.16430
H          H       0.51120   0.64950   0.66430
C          C       0.99850   0.80990   0.20400
C          C       0.99850   0.19010   0.70400
C          C       0.49850   0.30990   0.20400
C          C       0.49850   0.69010   0.70400
H          H       0.97650   0.82030   0.20190
H          H       0.97650   0.17970   0.70190
H          H       0.47650   0.32030   0.20190
H          H       0.47650   0.67970   0.70190
C          C       0.01010   0.77670   0.22940
C          C       0.01010   0.22330   0.72940
C          C       0.51010   0.27670   0.22940
C          C       0.51010   0.72330   0.72940
C          C       0.04220   0.76150   0.23240
C          C       0.04220   0.23850   0.73240
C          C       0.54220   0.26150   0.23240
C          C       0.54220   0.73850   0.73240
H          H       0.05010   0.73890   0.24980
H          H       0.05010   0.26110   0.74980
H          H       0.55010   0.23890   0.24980
H          H       0.55010   0.76110   0.74980
C          C       0.19060   0.21870   0.28450
C          C       0.19060   0.78130   0.78450
C          C       0.69060   0.71870   0.28450
C          C       0.69060   0.28130   0.78450
H          H       0.17850   0.20400   0.26710
H          H       0.17850   0.79600   0.76710
H          H       0.67850   0.70400   0.26710
H          H       0.67850   0.29600   0.76710
C          C       0.34850   0.36280   0.23510
C          C       0.34850   0.63720   0.73510
C          C       0.84850   0.86280   0.23510
C          C       0.84850   0.13720   0.73510
C          C       0.37330   0.32300   0.22850
C          C       0.37330   0.67700   0.72850
C          C       0.87330   0.82300   0.22850
C          C       0.87330   0.17700   0.72850
H          H       0.37500   0.28360   0.23820
H          H       0.37500   0.71640   0.73820
H          H       0.87500   0.78360   0.23820
H          H       0.87500   0.21640   0.73820
C          C       0.39570   0.34070   0.20780
C          C       0.39570   0.65930   0.70780
C          C       0.89570   0.84070   0.20780
C          C       0.89570   0.15930   0.70780
H          H       0.41270   0.31350   0.20330
H          H       0.41270   0.68650   0.70330
H          H       0.91270   0.81350   0.20330
H          H       0.91270   0.18650   0.70330
C          C       0.39330   0.39830   0.19360
C          C       0.39330   0.60170   0.69360
C          C       0.89330   0.89830   0.19360
C          C       0.89330   0.10170   0.69360
C          C       0.36840   0.43810   0.20010
C          C       0.36840   0.56190   0.70010
C          C       0.86840   0.93810   0.20010
C          C       0.86840   0.06190   0.70010
H          H       0.36680   0.47750   0.19040
H          H       0.36680   0.52250   0.69040
H          H       0.86680   0.97750   0.19040
H          H       0.86680   0.02250   0.69040
C          C       0.34610   0.42040   0.22090
C          C       0.34610   0.57960   0.72090
C          C       0.84610   0.92040   0.22090
C          C       0.84610   0.07960   0.72090
H          H       0.32910   0.44760   0.22530
H          H       0.32910   0.55240   0.72530
H          H       0.82910   0.94760   0.22530
H          H       0.82910   0.05240   0.72530
C          C       0.92160   0.73220   0.41020
C          C       0.92160   0.26780   0.91020
C          C       0.42160   0.23220   0.41020
C          C       0.42160   0.76780   0.91020
H          H       0.91140   0.72100   0.42830
H          H       0.91140   0.27900   0.92830
H          H       0.41140   0.22100   0.42830
H          H       0.41140   0.77900   0.92830
C          C       0.98450   0.79410   0.36690
C          C       0.98450   0.20590   0.86690
C          C       0.48450   0.29410   0.36690
C          C       0.48450   0.70590   0.86690
C          C       0.13060   0.15490   0.30400
C          C       0.13060   0.84510   0.80400
C          C       0.63060   0.65490   0.30400
C          C       0.63060   0.34510   0.80400
C          C       0.12430   0.09170   0.30310
C          C       0.12430   0.90830   0.80310
C          C       0.62430   0.59170   0.30310
C          C       0.62430   0.40830   0.80310
H          H       0.13440   0.06470   0.31770
H          H       0.13440   0.93530   0.81770
H          H       0.63440   0.56470   0.31770
H          H       0.63440   0.43530   0.81770
C          C       0.10310   0.06780   0.28080
C          C       0.10310   0.93220   0.78080
C          C       0.60310   0.56780   0.28080
C          C       0.60310   0.43220   0.78080
H          H       0.09870   0.02450   0.28010
H          H       0.09870   0.97550   0.78010
H          H       0.59870   0.52450   0.28010
H          H       0.59870   0.47550   0.78010
C          C       0.08820   0.10710   0.25940
C          C       0.08820   0.89290   0.75940
C          C       0.58820   0.60710   0.25940
C          C       0.58820   0.39290   0.75940
C          C       0.09460   0.17040   0.26030
C          C       0.09460   0.82960   0.76030
C          C       0.59460   0.67040   0.26030
C          C       0.59460   0.32960   0.76030
H          H       0.08440   0.19730   0.24570
H          H       0.08440   0.80270   0.74570
H          H       0.58440   0.69730   0.24570
H          H       0.58440   0.30270   0.74570
C          C       0.11580   0.19430   0.28260
C          C       0.11580   0.80570   0.78260
C          C       0.61580   0.69430   0.28260
C          C       0.61580   0.30570   0.78260
H          H       0.12010   0.23750   0.28330
H          H       0.12010   0.76250   0.78330
H          H       0.62010   0.73750   0.28330
H          H       0.62010   0.26250   0.78330
C          C       0.22040   0.24430   0.28510
C          C       0.22040   0.75570   0.78510
C          C       0.72040   0.74430   0.28510
C          C       0.72040   0.25570   0.78510
H          H       0.23280   0.25020   0.26770
H          H       0.23280   0.74980   0.76770
H          H       0.73280   0.75020   0.26770
H          H       0.73280   0.24980   0.76770
C          C       0.24760   0.49460   0.04770
C          C       0.24760   0.50540   0.54770
C          C       0.74760   0.99460   0.04770
C          C       0.74760   0.00540   0.54770
O          O       0.22970   0.53060   0.03230
O          O       0.22970   0.46940   0.53230
O          O       0.72970   0.03060   0.03230
O          O       0.72970   0.96940   0.53230
O          O       0.95350   0.56530   0.37567
O          O       0.95350   0.43470   0.87567
O          O       0.45350   0.06530   0.37567
O          O       0.45350   0.93470   0.87567
C          C       0.95090   0.51110   0.37020
C          C       0.95090   0.48890   0.87020
C          C       0.45090   0.01110   0.37020
C          C       0.45090   0.98890   0.87020
C          C       0.64850   0.17950   0.14310
C          C       0.64850   0.82050   0.64310
C          C       0.14850   0.67950   0.14310
C          C       0.14850   0.32050   0.64310
H          H       0.63220   0.16160   0.13020
H          H       0.63220   0.83840   0.63020
H          H       0.13220   0.66160   0.13020
H          H       0.13220   0.33840   0.63020
C          C       0.86090   0.67000   0.39210
C          C       0.86090   0.33000   0.89210
C          C       0.36090   0.17000   0.39210
C          C       0.36090   0.83000   0.89210
C          C       0.83100   0.69760   0.39210
C          C       0.83100   0.30240   0.89210
C          C       0.33100   0.19760   0.39210
C          C       0.33100   0.80240   0.89210
H          H       0.82510   0.72800   0.37720
H          H       0.82510   0.27200   0.87720
H          H       0.32510   0.22800   0.37720
H          H       0.32510   0.77200   0.87720
C          C       0.80960   0.68060   0.41390
C          C       0.80960   0.31940   0.91390
C          C       0.30960   0.18060   0.41390
C          C       0.30960   0.81940   0.91390
H          H       0.78920   0.69950   0.41400
H          H       0.78920   0.30050   0.91400
H          H       0.28920   0.19950   0.41400
H          H       0.28920   0.80050   0.91400
C          C       0.81820   0.63610   0.43580
C          C       0.81820   0.36390   0.93580
C          C       0.31820   0.13610   0.43580
C          C       0.31820   0.86390   0.93580
C          C       0.84810   0.60850   0.43580
C          C       0.84810   0.39150   0.93580
C          C       0.34810   0.10850   0.43580
C          C       0.34810   0.89150   0.93580
H          H       0.85390   0.57810   0.45070
H          H       0.85390   0.42190   0.95070
H          H       0.35390   0.07810   0.45070
H          H       0.35390   0.92190   0.95070
C          C       0.86940   0.62540   0.41390
C          C       0.86940   0.37460   0.91390
C          C       0.36940   0.12540   0.41390
C          C       0.36940   0.87460   0.91390
H          H       0.88990   0.60660   0.41390
H          H       0.88990   0.39340   0.91390
H          H       0.38990   0.10660   0.41390
H          H       0.38990   0.89340   0.91390
C          C       0.74690   0.57770   0.13500
C          C       0.74690   0.42230   0.63500
C          C       0.24690   0.07770   0.13500
C          C       0.24690   0.92230   0.63500
H          H       0.72960   0.60370   0.12840
H          H       0.72960   0.39630   0.62840
H          H       0.22960   0.10370   0.12840
H          H       0.22960   0.89630   0.62840
C          C       0.77010   0.59980   0.15590
C          C       0.77010   0.40020   0.65590
C          C       0.27010   0.09980   0.15590
C          C       0.27010   0.90020   0.65590
H          H       0.76870   0.64080   0.16360
H          H       0.76870   0.35920   0.66360
H          H       0.26870   0.14080   0.16360
H          H       0.26870   0.85920   0.66360
C          C       0.79540   0.56170   0.16550
C          C       0.79540   0.43830   0.66550
C          C       0.29540   0.06170   0.16550
C          C       0.29540   0.93830   0.66550
C          C       0.79730   0.50160   0.15420
C          C       0.79730   0.49840   0.65420
C          C       0.29730   0.00160   0.15420
C          C       0.29730   0.99840   0.65420
H          H       0.81460   0.47560   0.16080
H          H       0.81460   0.52440   0.66080
H          H       0.31460   0.97560   0.16080
H          H       0.31460   0.02440   0.66080
C          C       0.77410   0.47960   0.13330
C          C       0.77410   0.52040   0.63330
C          C       0.27410   0.97960   0.13330
C          C       0.27410   0.02040   0.63330
H          H       0.77550   0.43850   0.12560
H          H       0.77550   0.56150   0.62560
H          H       0.27550   0.93850   0.12560
H          H       0.27550   0.06150   0.62560
C          C       0.74890   0.51760   0.12370
C          C       0.74890   0.48240   0.62370
C          C       0.24890   0.01760   0.12370
C          C       0.24890   0.98240   0.62370
C          C       0.87280   0.67530   0.33790
C          C       0.87280   0.32470   0.83790
C          C       0.37280   0.17530   0.33790
C          C       0.37280   0.82470   0.83790
O          O       0.22917   0.14100   0.38916
O          O       0.22917   0.85900   0.88916
O          O       0.72917   0.64100   0.38916
O          O       0.72917   0.35900   0.88916
O          O       0.44240   0.85740   0.24620
O          O       0.44240   0.14260   0.74620
O          O       0.94240   0.35740   0.24620
O          O       0.94240   0.64260   0.74620
O          O       0.71670   0.36700   0.14870
O          O       0.71670   0.63300   0.64870
O          O       0.21670   0.86700   0.14870
O          O       0.21670   0.13300   0.64870
O          O       0.75620   0.17390   0.17050
O          O       0.75620   0.82610   0.67050
O          O       0.25620   0.67390   0.17050
O          O       0.25620   0.32610   0.67050
O          O       0.18380   0.35400   0.36850
O          O       0.18380   0.64600   0.86850
O          O       0.68380   0.85400   0.36850
O          O       0.68380   0.14600   0.86850
O          O       0.96000   0.63500   0.32090
O          O       0.96000   0.36500   0.82090
O          O       0.46000   0.13500   0.32090
O          O       0.46000   0.86500   0.82090
C          C       0.41700   0.41760   0.16930
C          C       0.41700   0.58240   0.66930
C          C       0.91700   0.91760   0.16930
C          C       0.91700   0.08240   0.66930
C          C       0.05130   0.87680   0.43310
C          C       0.05130   0.12320   0.93310
C          C       0.55130   0.37680   0.43310
C          C       0.55130   0.62320   0.93310
C          C       0.03050   0.91310   0.41510
C          C       0.03050   0.08690   0.91510
C          C       0.53050   0.41310   0.41510
C          C       0.53050   0.58690   0.91510
H          H       0.03080   0.95700   0.41730
H          H       0.03080   0.04300   0.91730
H          H       0.53080   0.45700   0.41730
H          H       0.53080   0.54300   0.91730
C          C       0.00930   0.88530   0.39390
C          C       0.00930   0.11470   0.89390
C          C       0.50930   0.38530   0.39390
C          C       0.50930   0.61470   0.89390
H          H       0.99510   0.91010   0.38160
H          H       0.99510   0.08990   0.88160
H          H       0.49510   0.41010   0.38160
H          H       0.49510   0.58990   0.88160
C          C       0.00890   0.82120   0.39080
C          C       0.00890   0.17880   0.89080
C          C       0.50890   0.32120   0.39080
C          C       0.50890   0.67880   0.89080
C          C       0.02970   0.78480   0.40880
C          C       0.02970   0.21520   0.90880
C          C       0.52970   0.28480   0.40880
C          C       0.52970   0.71520   0.90880
H          H       0.02950   0.74100   0.40660
H          H       0.02950   0.25900   0.90660
H          H       0.52950   0.24100   0.40660
H          H       0.52950   0.75900   0.90660
C          C       0.05090   0.81270   0.42990
C          C       0.05090   0.18730   0.92990
C          C       0.55090   0.31270   0.42990
C          C       0.55090   0.68730   0.92990
H          H       0.06510   0.78780   0.44220
H          H       0.06510   0.21220   0.94220
H          H       0.56510   0.28780   0.44220
H          H       0.56510   0.71220   0.94220
C          C       0.79560   0.61960   0.45960
C          C       0.79560   0.38040   0.95960
C          C       0.29560   0.11960   0.45960
C          C       0.29560   0.88040   0.95960
C          C       0.77390   0.66470   0.46760
C          C       0.77390   0.33530   0.96760
C          C       0.27390   0.16470   0.46760
C          C       0.27390   0.83530   0.96760
H          H       0.77500   0.70520   0.45910
H          H       0.77500   0.29480   0.95910
H          H       0.27500   0.20520   0.45910
H          H       0.27500   0.79480   0.95910
C          C       0.75070   0.65070   0.48820
C          C       0.75070   0.34930   0.98820
C          C       0.25070   0.15070   0.48820
C          C       0.25070   0.84930   0.98820
H          H       0.73590   0.68160   0.49370
H          H       0.73590   0.31840   0.99370
H          H       0.23590   0.18160   0.49370
H          H       0.23590   0.81840   0.99370
C          C       0.74920   0.59160   0.50070
C          C       0.74920   0.40840   0.00070
C          C       0.24920   0.09160   0.50070
C          C       0.24920   0.90840   0.00070
C          C       0.77090   0.54640   0.49260
C          C       0.77090   0.45360   0.99260
C          C       0.27090   0.04640   0.49260
C          C       0.27090   0.95360   0.99260
H          H       0.76980   0.50600   0.50110
H          H       0.76980   0.49400   0.00110
H          H       0.26980   0.00600   0.50110
H          H       0.26980   0.99400   0.00110
C          C       0.79410   0.56040   0.47200
C          C       0.79410   0.43960   0.97200
C          C       0.29410   0.06040   0.47200
C          C       0.29410   0.93960   0.97200
H          H       0.80890   0.52960   0.46650
H          H       0.80890   0.47040   0.96650
H          H       0.30890   0.02960   0.46650
H          H       0.30890   0.97040   0.96650
C          C       0.41650   0.50310   0.58720
C          C       0.41650   0.49690   0.08720
C          C       0.91650   0.00310   0.58720
C          C       0.91650   0.99690   0.08720
O          O       0.53030   0.04650   0.37530
O          O       0.53030   0.95350   0.87530
O          O       0.03030   0.54650   0.37530
O          O       0.03030   0.45350   0.87530
C          C       0.00010   0.08480   0.59430
C          C       0.00010   0.91520   0.09430
C          C       0.50010   0.58480   0.59430
C          C       0.50010   0.41520   0.09430
C          C       0.53410   0.10300   0.37430
C          C       0.53410   0.89700   0.87430
C          C       0.03410   0.60300   0.37430
C          C       0.03410   0.39700   0.87430
O          O       0.14470   0.04180   0.52330
O          O       0.14470   0.95820   0.02330
O          O       0.64470   0.54180   0.52330
O          O       0.64470   0.45820   0.02330
C          C       0.13770   0.98780   0.52160
C          C       0.13770   0.01220   0.02160
C          C       0.63770   0.48780   0.52160
C          C       0.63770   0.51220   0.02160
O          O       0.72230   0.51370   0.53060
O          O       0.72230   0.48630   0.03060
O          O       0.22230   0.01370   0.53060
O          O       0.22230   0.98630   0.03060
O          O       0.15080   0.96300   0.54190
O          O       0.15080   0.03700   0.04190
O          O       0.65080   0.46300   0.54190
O          O       0.65080   0.53700   0.04190
O          O       0.70340   0.61030   0.53220
O          O       0.70340   0.38970   0.03220
O          O       0.20340   0.11030   0.53220
O          O       0.20340   0.88970   0.03220
C          C       0.66040   0.22650   0.23635
C          C       0.66040   0.77350   0.73635
C          C       0.16040   0.72650   0.23635
C          C       0.16040   0.27350   0.73635
C          C       0.64580   0.26970   0.25460
C          C       0.64580   0.73030   0.75460
C          C       0.14580   0.76970   0.25460
C          C       0.14580   0.23030   0.75460
H          H       0.64900   0.31280   0.25140
H          H       0.64900   0.68720   0.75140
H          H       0.14900   0.81280   0.25140
H          H       0.14900   0.18720   0.75140
C          C       0.62630   0.25000   0.27753
C          C       0.62630   0.75000   0.77753
C          C       0.12630   0.75000   0.27753
C          C       0.12630   0.25000   0.77753
H          H       0.61630   0.27960   0.29000
H          H       0.61630   0.72040   0.79000
H          H       0.11630   0.77960   0.29000
H          H       0.11630   0.22040   0.79000
C          C       0.62150   0.18700   0.28225
C          C       0.62150   0.81300   0.78225
C          C       0.12150   0.68700   0.28225
C          C       0.12150   0.31300   0.78225
C          C       0.63620   0.14370   0.26400
C          C       0.63620   0.85630   0.76400
C          C       0.13620   0.64370   0.26400
C          C       0.13620   0.35630   0.76400
H          H       0.63290   0.10070   0.26720
H          H       0.63290   0.89930   0.76720
H          H       0.13290   0.60070   0.26720
H          H       0.13290   0.39930   0.76720
C          C       0.65570   0.16350   0.24110
C          C       0.65570   0.83650   0.74110
C          C       0.15570   0.66350   0.24110
C          C       0.15570   0.33650   0.74110
H          H       0.66570   0.13390   0.22860
H          H       0.66570   0.86610   0.72860
H          H       0.16570   0.63390   0.22860
H          H       0.16570   0.36610   0.72860
C          C       0.72490   0.57170   0.52300
C          C       0.72490   0.42830   0.02300
C          C       0.22490   0.07170   0.52300
C          C       0.22490   0.92830   0.02300
C          C       0.10380   0.89970   0.50300
C          C       0.10380   0.10030   0.00300
C          C       0.60380   0.39970   0.50300
C          C       0.60380   0.60030   0.00300
H          H       0.11140   0.87490   0.51970
H          H       0.11140   0.12510   0.01970
H          H       0.61140   0.37490   0.51970
H          H       0.61140   0.62510   0.01970
C          C       0.11390   0.96090   0.50060
C          C       0.11390   0.03910   0.00060
C          C       0.61390   0.46090   0.50060
C          C       0.61390   0.53910   0.00060
C          C       0.10290   0.99720   0.47610
C          C       0.10290   0.00280   0.97610
C          C       0.60290   0.49720   0.47610
C          C       0.60290   0.50280   0.97610
H          H       0.10980   0.03890   0.47440
H          H       0.10980   0.96110   0.97440
H          H       0.60980   0.53890   0.47440
H          H       0.60980   0.46110   0.97440
C          C       0.08180   0.97230   0.45400
C          C       0.08180   0.02770   0.95400
C          C       0.58180   0.47230   0.45400
C          C       0.58180   0.52770   0.95400
H          H       0.07420   0.99710   0.43720
H          H       0.07420   0.00290   0.93720
H          H       0.57420   0.49710   0.43720
H          H       0.57420   0.50290   0.93720
C          C       0.07170   0.91120   0.45640
C          C       0.07170   0.08880   0.95640
C          C       0.57170   0.41120   0.45640
C          C       0.57170   0.58880   0.95640
C          C       0.08270   0.87490   0.48090
C          C       0.08270   0.12510   0.98090
C          C       0.58270   0.37490   0.48090
C          C       0.58270   0.62510   0.98090
H          H       0.07580   0.83310   0.48250
H          H       0.07580   0.16690   0.98250
H          H       0.57580   0.33310   0.48250
H          H       0.57580   0.66690   0.98250
C          C       0.01930   0.83270   0.32230
C          C       0.01930   0.16730   0.82230
C          C       0.51930   0.33270   0.32230
C          C       0.51930   0.66730   0.82230
H          H       0.03110   0.86520   0.33210
H          H       0.03110   0.13480   0.83210
H          H       0.53110   0.36520   0.33210
H          H       0.53110   0.63480   0.83210
O          O       0.47920   0.63000   0.26890
O          O       0.47920   0.37000   0.76890
O          O       0.97920   0.13000   0.26890
O          O       0.97920   0.87000   0.76890
O          O       0.90960   0.83680   0.30610
O          O       0.90960   0.16320   0.80610
O          O       0.40960   0.33680   0.30610
O          O       0.40960   0.66320   0.80610
C          C       0.66650   0.18200   0.07800
C          C       0.66650   0.81800   0.57800
C          C       0.16650   0.68200   0.07800
C          C       0.16650   0.31800   0.57800
C          C       0.67578   0.12720   0.06420
C          C       0.67578   0.87280   0.56420
C          C       0.17578   0.62720   0.06420
C          C       0.17578   0.37280   0.56420
H          H       0.69590   0.10920   0.06970
H          H       0.69590   0.89080   0.56970
H          H       0.19590   0.60920   0.06970
H          H       0.19590   0.39080   0.56970
C          C       0.65570   0.09880   0.04220
C          C       0.65570   0.90120   0.54220
C          C       0.15570   0.59880   0.04220
C          C       0.15570   0.40120   0.54220
H          H       0.66200   0.06140   0.03280
H          H       0.66200   0.93860   0.53280
H          H       0.16200   0.56140   0.03280
H          H       0.16200   0.43860   0.53280
C          C       0.62630   0.12520   0.03408
C          C       0.62630   0.87480   0.53408
C          C       0.12630   0.62520   0.03408
C          C       0.12630   0.37480   0.53408
C          C       0.61702   0.18000   0.04790
C          C       0.61702   0.82000   0.54790
C          C       0.11702   0.68000   0.04790
C          C       0.11702   0.32000   0.54790
H          H       0.59690   0.19810   0.04230
H          H       0.59690   0.80190   0.54230
H          H       0.09690   0.69810   0.04230
H          H       0.09690   0.30190   0.54230
C          C       0.63710   0.20840   0.06980
C          C       0.63710   0.79160   0.56980
C          C       0.13710   0.70840   0.06980
C          C       0.13710   0.29160   0.56980
H          H       0.63080   0.24580   0.07920
H          H       0.63080   0.75420   0.57920
H          H       0.13080   0.74580   0.07920
H          H       0.13080   0.25420   0.57920
