data_crystal

_cell_length_a    7.63330
_cell_length_b    24.13320
_cell_length_c    30.52910
_cell_angle_alpha 90.00000
_cell_angle_beta  93.50500
_cell_angle_gamma 90.00000

_symmetry_space_group_name_Hall 'P 1'
_symmetry_space_group_name_H-M  'P 1'

loop_
_symmetry_equiv_pos_as_xyz
 'x,y,z'

loop_
_atom_site_label
_atom_site_type_symbol
_atom_site_fract_x
_atom_site_fract_y
_atom_site_fract_z
In         In      0.50000   0.84883   0.25000
In         In      0.50000   0.15117   0.75000
In         In      0.00000   0.34883   0.25000
In         In      1.00000   0.65117   0.75000
In         In      0.50000   0.00000   0.00000
In         In      0.50000   0.00000   0.50000
In         In      0.00000   0.50000   0.00000
In         In      0.00000   0.50000   0.50000
O          O       0.53890   0.91440   0.19453
O          O       0.46110   0.08560   0.80547
O          O       0.46110   0.91440   0.30547
O          O       0.53890   0.08560   0.69453
O          O       0.03890   0.41440   0.19453
O          O       0.96110   0.58560   0.80547
O          O       0.96110   0.41440   0.30547
O          O       0.03890   0.58560   0.69453
O          O       0.75640   0.87890   0.23327
O          O       0.24360   0.12110   0.76673
O          O       0.24360   0.87890   0.26673
O          O       0.75640   0.12110   0.73327
O          O       0.25640   0.37890   0.23327
O          O       0.74360   0.62110   0.76673
O          O       0.74360   0.37890   0.26673
O          O       0.25640   0.62110   0.73327
O          O       0.09020   0.27080   0.20450
O          O       0.90980   0.72920   0.79550
O          O       0.90980   0.27080   0.29550
O          O       0.09020   0.72920   0.70450
O          O       0.59020   0.77080   0.20450
O          O       0.40980   0.22920   0.79550
O          O       0.40980   0.77080   0.29550
O          O       0.59020   0.22920   0.70450
O          O       0.83530   0.30850   0.19777
O          O       0.16470   0.69150   0.80223
O          O       0.16470   0.30850   0.30223
O          O       0.83530   0.69150   0.69777
O          O       0.33530   0.80850   0.19777
O          O       0.66470   0.19150   0.80223
O          O       0.66470   0.80850   0.30223
O          O       0.33530   0.19150   0.69777
N          N       0.28110   0.94960   0.00132
N          N       0.71890   0.05040   0.99868
N          N       0.71890   0.94960   0.49868
N          N       0.28110   0.05040   0.50132
N          N       0.78110   0.44960   0.00132
N          N       0.21890   0.55040   0.99868
N          N       0.21890   0.44960   0.49868
N          N       0.78110   0.55040   0.50132
N          N       0.44500   0.03346   0.06024
N          N       0.55500   0.96654   0.93976
N          N       0.55500   0.03346   0.43976
N          N       0.44500   0.96654   0.56024
N          N       0.94500   0.53346   0.06024
N          N       0.05500   0.46654   0.93976
N          N       0.05500   0.53346   0.43976
N          N       0.94500   0.46654   0.56024
C          C       0.94080   0.27230   0.18750
C          C       0.05920   0.72770   0.81250
C          C       0.05920   0.27230   0.31250
C          C       0.94080   0.72770   0.68750
C          C       0.44080   0.77230   0.18750
C          C       0.55920   0.22770   0.81250
C          C       0.55920   0.77230   0.31250
C          C       0.44080   0.22770   0.68750
C          C       0.75950   0.14640   0.09650
C          C       0.24050   0.85360   0.90350
C          C       0.24050   0.14640   0.40350
C          C       0.75950   0.85360   0.59650
C          C       0.25950   0.64640   0.09650
C          C       0.74050   0.35360   0.90350
C          C       0.74050   0.64640   0.40350
C          C       0.25950   0.35360   0.59650
C          C       0.98810   0.18310   0.14620
C          C       0.01190   0.81690   0.85380
C          C       0.01190   0.18310   0.35380
C          C       0.98810   0.81690   0.64620
C          C       0.48810   0.68310   0.14620
C          C       0.51190   0.31690   0.85380
C          C       0.51190   0.68310   0.35380
C          C       0.48810   0.31690   0.64620
H          H       0.10030   0.17940   0.16040
H          H       0.89970   0.82060   0.83960
H          H       0.89970   0.17940   0.33960
H          H       0.10030   0.82060   0.66040
H          H       0.60030   0.67940   0.16040
H          H       0.39970   0.32060   0.83960
H          H       0.39970   0.67940   0.33960
H          H       0.60030   0.32060   0.66040
C          C       0.88540   0.23010   0.15410
C          C       0.11460   0.76990   0.84590
C          C       0.11460   0.23010   0.34590
C          C       0.88540   0.76990   0.65410
C          C       0.38540   0.73010   0.15410
C          C       0.61460   0.26990   0.84590
C          C       0.61460   0.73010   0.34590
C          C       0.38540   0.26990   0.65410
C          C       0.31020   0.01600   0.08561
C          C       0.68980   0.98400   0.91439
C          C       0.68980   0.01600   0.41439
C          C       0.31020   0.98400   0.58561
C          C       0.81020   0.51600   0.08561
C          C       0.18980   0.48400   0.91439
C          C       0.18980   0.51600   0.41439
C          C       0.81020   0.48400   0.58561
C          C       0.72570   0.23450   0.13210
C          C       0.27430   0.76550   0.86790
C          C       0.27430   0.23450   0.36790
C          C       0.72570   0.76550   0.63210
C          C       0.22570   0.73450   0.13210
C          C       0.77430   0.26550   0.86790
C          C       0.77430   0.73450   0.36790
C          C       0.22570   0.26550   0.63210
H          H       0.65660   0.26590   0.13680
H          H       0.34340   0.73410   0.86320
H          H       0.34340   0.26590   0.36320
H          H       0.65660   0.73410   0.63680
H          H       0.15660   0.76590   0.13680
H          H       0.84340   0.23410   0.86320
H          H       0.84340   0.76590   0.36320
H          H       0.15660   0.23410   0.63680
C          C       0.92400   0.14220   0.11770
C          C       0.07600   0.85780   0.88230
C          C       0.07600   0.14220   0.38230
C          C       0.92400   0.85780   0.61770
C          C       0.42400   0.64220   0.11770
C          C       0.57600   0.35780   0.88230
C          C       0.57600   0.64220   0.38230
C          C       0.42400   0.35780   0.61770
H          H       0.99370   0.11100   0.11270
H          H       0.00630   0.88900   0.88730
H          H       0.00630   0.11100   0.38730
H          H       0.99370   0.88900   0.61270
H          H       0.49370   0.61100   0.11270
H          H       0.50630   0.38900   0.88730
H          H       0.50630   0.61100   0.38730
H          H       0.49370   0.38900   0.61270
C          C       0.53710   0.07410   0.08213
C          C       0.46290   0.92590   0.91787
C          C       0.46290   0.07410   0.41787
C          C       0.53710   0.92590   0.58213
C          C       0.03710   0.57410   0.08213
C          C       0.96290   0.42590   0.91787
C          C       0.96290   0.57410   0.41787
C          C       0.03710   0.42590   0.58213
C          C       0.82470   0.92900   0.16951
C          C       0.17530   0.07100   0.83049
C          C       0.17530   0.92900   0.33049
C          C       0.82470   0.07100   0.66951
C          C       0.32470   0.42900   0.16951
C          C       0.67530   0.57100   0.83049
C          C       0.67530   0.42900   0.33049
C          C       0.32470   0.57100   0.66951
C          C       0.06160   0.96110   0.10877
C          C       0.93840   0.03890   0.89123
C          C       0.93840   0.96110   0.39123
C          C       0.06160   0.03890   0.60877
C          C       0.56160   0.46110   0.10877
C          C       0.43840   0.53890   0.89123
C          C       0.43840   0.46110   0.39123
C          C       0.56160   0.53890   0.60877
C          C       0.17330   0.94450   0.03609
C          C       0.82670   0.05550   0.96391
C          C       0.82670   0.94450   0.46391
C          C       0.17330   0.05550   0.53609
C          C       0.67330   0.44450   0.03609
C          C       0.32670   0.55550   0.96391
C          C       0.32670   0.44450   0.46391
C          C       0.67330   0.55550   0.53609
C          C       0.88510   0.97390   0.10220
C          C       0.11490   0.02610   0.89780
C          C       0.11490   0.97390   0.39780
C          C       0.88510   0.02610   0.60220
C          C       0.38510   0.47390   0.10220
C          C       0.61490   0.52610   0.89780
C          C       0.61490   0.47390   0.39780
C          C       0.38510   0.52610   0.60220
H          H       0.84480   0.99310   0.07670
H          H       0.15520   0.00690   0.92330
H          H       0.15520   0.99310   0.42330
H          H       0.84480   0.00690   0.57670
H          H       0.34480   0.49310   0.07670
H          H       0.65520   0.50690   0.92330
H          H       0.65520   0.49310   0.42330
H          H       0.34480   0.50690   0.57670
C          C       0.00320   0.91690   0.17663
C          C       0.99680   0.08310   0.82337
C          C       0.99680   0.91690   0.32337
C          C       0.00320   0.08310   0.67663
C          C       0.50320   0.41690   0.17663
C          C       0.49680   0.58310   0.82337
C          C       0.49680   0.41690   0.32337
C          C       0.50320   0.58310   0.67663
H          H       0.04420   0.89760   0.20200
H          H       0.95580   0.10240   0.79800
H          H       0.95580   0.89760   0.29800
H          H       0.04420   0.10240   0.70200
H          H       0.54420   0.39760   0.20200
H          H       0.45580   0.60240   0.79800
H          H       0.45580   0.39760   0.29800
H          H       0.54420   0.60240   0.70200
C          C       0.76720   0.95840   0.13293
C          C       0.23280   0.04160   0.86707
C          C       0.23280   0.95840   0.36707
C          C       0.76720   0.04160   0.63293
C          C       0.26720   0.45840   0.13293
C          C       0.73280   0.54160   0.86707
C          C       0.73280   0.45840   0.36707
C          C       0.26720   0.54160   0.63293
H          H       0.64810   0.96800   0.12860
H          H       0.35190   0.03200   0.87140
H          H       0.35190   0.96800   0.37140
H          H       0.64810   0.03200   0.62860
H          H       0.14810   0.46800   0.12860
H          H       0.85190   0.53200   0.87140
H          H       0.85190   0.46800   0.37140
H          H       0.14810   0.53200   0.62860
C          C       0.68660   0.10170   0.06771
C          C       0.31340   0.89830   0.93229
C          C       0.31340   0.10170   0.43229
C          C       0.68660   0.89830   0.56771
C          C       0.18660   0.60170   0.06771
C          C       0.81340   0.39830   0.93229
C          C       0.81340   0.60170   0.43229
C          C       0.18660   0.39830   0.56771
C          C       0.66120   0.19420   0.10320
C          C       0.33880   0.80580   0.89680
C          C       0.33880   0.19420   0.39680
C          C       0.66120   0.80580   0.60320
C          C       0.16120   0.69420   0.10320
C          C       0.83880   0.30580   0.89680
C          C       0.83880   0.69420   0.39680
C          C       0.16120   0.30580   0.60320
H          H       0.55130   0.19900   0.08810
H          H       0.44870   0.80100   0.91190
H          H       0.44870   0.19900   0.41190
H          H       0.55130   0.80100   0.58810
H          H       0.05130   0.69900   0.08810
H          H       0.94870   0.30100   0.91190
H          H       0.94870   0.69900   0.41190
H          H       0.05130   0.30100   0.58810
C          C       0.46070   0.08310   0.12350
C          C       0.53930   0.91690   0.87650
C          C       0.53930   0.08310   0.37650
C          C       0.46070   0.91690   0.62350
C          C       0.96070   0.58310   0.12350
C          C       0.03930   0.41690   0.87650
C          C       0.03930   0.58310   0.37650
C          C       0.96070   0.41690   0.62350
H          H       0.49860   0.10870   0.14530
H          H       0.50140   0.89130   0.85470
H          H       0.50140   0.10870   0.35470
H          H       0.49860   0.89130   0.64530
H          H       0.99860   0.60870   0.14530
H          H       0.00140   0.39130   0.85470
H          H       0.00140   0.60870   0.35470
H          H       0.99860   0.39130   0.64530
C          C       0.18810   0.97530   0.07453
C          C       0.81190   0.02470   0.92547
C          C       0.81190   0.97530   0.42547
C          C       0.18810   0.02470   0.57453
C          C       0.68810   0.47530   0.07453
C          C       0.31190   0.52470   0.92547
C          C       0.31190   0.47530   0.42547
C          C       0.68810   0.52470   0.57453
C          C       0.23270   0.90920   0.97168
C          C       0.76730   0.09080   0.02832
C          C       0.76730   0.90920   0.52832
C          C       0.23270   0.09080   0.47168
C          C       0.73270   0.40920   0.97168
C          C       0.26730   0.59080   0.02832
C          C       0.26730   0.40920   0.52832
C          C       0.73270   0.59080   0.47168
C          C       0.32380   0.04750   0.12507
C          C       0.67620   0.95250   0.87493
C          C       0.67620   0.04750   0.37493
C          C       0.32380   0.95250   0.62507
C          C       0.82380   0.54750   0.12507
C          C       0.17620   0.45250   0.87493
C          C       0.17620   0.54750   0.37493
C          C       0.82380   0.45250   0.62507
H          H       0.24960   0.04430   0.14840
H          H       0.75040   0.95570   0.85160
H          H       0.75040   0.04430   0.35160
H          H       0.24960   0.95570   0.64840
H          H       0.74960   0.54430   0.14840
H          H       0.25040   0.45570   0.85160
H          H       0.25040   0.54430   0.35160
H          H       0.74960   0.45570   0.64840
C          C       0.08470   0.87910   0.98670
C          C       0.91530   0.12090   0.01330
C          C       0.91530   0.87910   0.51330
C          C       0.08470   0.12090   0.48670
C          C       0.58470   0.37910   0.98670
C          C       0.41530   0.62090   0.01330
C          C       0.41530   0.37910   0.51330
C          C       0.58470   0.62090   0.48670
H          H       0.02410   0.84990   0.97200
H          H       0.97590   0.15010   0.02800
H          H       0.97590   0.84990   0.52800
H          H       0.02410   0.15010   0.47200
H          H       0.52410   0.34990   0.97200
H          H       0.47590   0.65010   0.02800
H          H       0.47590   0.34990   0.52800
H          H       0.52410   0.65010   0.47200
C          C       0.05060   0.90080   0.02570
C          C       0.94940   0.09920   0.97430
C          C       0.94940   0.90080   0.47430
C          C       0.05060   0.09920   0.52570
C          C       0.55060   0.40080   0.02570
C          C       0.44940   0.59920   0.97430
C          C       0.44940   0.40080   0.47430
C          C       0.55060   0.59920   0.52570
H          H       0.96080   0.88920   0.04340
H          H       0.03920   0.11080   0.95660
H          H       0.03920   0.88920   0.45660
H          H       0.96080   0.11080   0.54340
H          H       0.46080   0.38920   0.04340
H          H       0.53920   0.61080   0.95660
H          H       0.53920   0.38920   0.45660
H          H       0.46080   0.61080   0.54340
C          C       0.11920   0.93350   0.14602
C          C       0.88080   0.06650   0.85398
C          C       0.88080   0.93350   0.35398
C          C       0.11920   0.06650   0.64602
C          C       0.61920   0.43350   0.14602
C          C       0.38080   0.56650   0.85398
C          C       0.38080   0.43350   0.35398
C          C       0.61920   0.56650   0.64602
H          H       0.23940   0.92570   0.15090
H          H       0.76060   0.07430   0.84910
H          H       0.76060   0.92570   0.34910
H          H       0.23940   0.07430   0.65090
H          H       0.73940   0.42570   0.15090
H          H       0.26060   0.57430   0.84910
H          H       0.26060   0.42570   0.34910
H          H       0.73940   0.57430   0.65090
C          C       0.69730   0.90740   0.20137
C          C       0.30270   0.09260   0.79863
C          C       0.30270   0.90740   0.29863
C          C       0.69730   0.09260   0.70137
C          C       0.19730   0.40740   0.20137
C          C       0.80270   0.59260   0.79863
C          C       0.80270   0.40740   0.29863
C          C       0.19730   0.59260   0.70137
O          O       0.37600   0.08850   0.97040
O          O       0.62400   0.91150   0.02960
O          O       0.62400   0.08850   0.52960
O          O       0.37600   0.91150   0.47040
O          O       0.87600   0.58850   0.97040
O          O       0.12400   0.41150   0.02960
O          O       0.12400   0.58850   0.52960
O          O       0.87600   0.41150   0.47040
