data_image0
_cell_length_a       9.99405
_cell_length_b       10.949
_cell_length_c       12.103
_cell_angle_alpha    104.475
_cell_angle_beta     101.156
_cell_angle_gamma    109.877

_symmetry_space_group_name_H-M    "P 1"
_symmetry_int_tables_number       1

loop_
  _symmetry_equiv_pos_as_xyz
  'x, y, z'

loop_
  _atom_site_label
  _atom_site_occupancy
  _atom_site_fract_x
  _atom_site_fract_y
  _atom_site_fract_z
  _atom_site_thermal_displace_type
  _atom_site_B_iso_or_equiv
  _atom_site_type_symbol
  Zn1      1.0000 0.60042  0.01590  0.11307  Biso   1.000  Zn
  Zn2      1.0000 0.39958  0.98410  0.88693  Biso   1.000  Zn
  H1       1.0000 0.41722  0.59889  0.09027  Biso   1.000  H
  H2       1.0000 0.58278  0.40111  0.90973  Biso   1.000  H
  H3       1.0000 0.27733  0.34917  0.06566  Biso   1.000  H
  H4       1.0000 0.72267  0.65083  0.93434  Biso   1.000  H
  H5       1.0000 0.02099  0.21573  0.92052  Biso   1.000  H
  H6       1.0000 0.97901  0.78427  0.07949  Biso   1.000  H
  H7       1.0000 0.05114  0.57328  0.82099  Biso   1.000  H
  H8       1.0000 0.94886  0.42672  0.17901  Biso   1.000  H
  H9       1.0000 0.52625  0.19664  0.55874  Biso   1.000  H
  H10      1.0000 0.47375  0.80336  0.44126  Biso   1.000  H
  H11      1.0000 0.57832  0.01192  0.65402  Biso   1.000  H
  H12      1.0000 0.42168  0.98808  0.34598  Biso   1.000  H
  H13      1.0000 0.09036  0.08955  0.03117  Biso   1.000  H
  H14      1.0000 0.90964  0.91045  0.96883  Biso   1.000  H
  H15      1.0000 0.93410  0.18929  0.12991  Biso   1.000  H
  H16      1.0000 0.06590  0.81071  0.87009  Biso   1.000  H
  H17      1.0000 0.02895  0.31927  0.34760  Biso   1.000  H
  H18      1.0000 0.97105  0.68073  0.65240  Biso   1.000  H
  H19      1.0000 0.42572  0.23922  0.37031  Biso   1.000  H
  H20      1.0000 0.57429  0.76077  0.62969  Biso   1.000  H
  H21      1.0000 0.55129  0.47477  0.75480  Biso   1.000  H
  H22      1.0000 0.44871  0.52522  0.24521  Biso   1.000  H
  H23      1.0000 0.36492  0.59974  0.78629  Biso   1.000  H
  H24      1.0000 0.63509  0.40027  0.21372  Biso   1.000  H
  H25      1.0000 0.71877  0.16359  0.38203  Biso   1.000  H
  H26      1.0000 0.28123  0.83641  0.61797  Biso   1.000  H
  H27      1.0000 0.89513  0.16387  0.55562  Biso   1.000  H
  H28      1.0000 0.10487  0.83613  0.44438  Biso   1.000  H
  H29      1.0000 0.95649  0.83883  0.30890  Biso   1.000  H
  H30      1.0000 0.04350  0.16116  0.69111  Biso   1.000  H
  H31      1.0000 0.77589  0.85224  0.14705  Biso   1.000  H
  H32      1.0000 0.22410  0.14776  0.85296  Biso   1.000  H
  C1       1.0000 0.32716  0.74676  0.97133  Biso   1.000  C
  C2       1.0000 0.67284  0.25324  0.02867  Biso   1.000  C
  C3       1.0000 0.24045  0.59949  0.95829  Biso   1.000  C
  C4       1.0000 0.75955  0.40051  0.04171  Biso   1.000  C
  C5       1.0000 0.30557  0.53706  0.02700  Biso   1.000  C
  C6       1.0000 0.69443  0.46294  0.97300  Biso   1.000  C
  C7       1.0000 0.22758  0.39880  0.01269  Biso   1.000  C
  C8       1.0000 0.77243  0.60119  0.98731  Biso   1.000  C
  C9       1.0000 0.08480  0.32307  0.93118  Biso   1.000  C
  C10      1.0000 0.91520  0.67693  0.06882  Biso   1.000  C
  C11      1.0000 0.01902  0.38398  0.86009  Biso   1.000  C
  C12      1.0000 0.98098  0.61602  0.13991  Biso   1.000  C
  C13      1.0000 0.09851  0.52277  0.87456  Biso   1.000  C
  C14      1.0000 0.90149  0.47723  0.12544  Biso   1.000  C
  C15      1.0000 0.87018  0.30064  0.77363  Biso   1.000  C
  C16      1.0000 0.12982  0.69937  0.22638  Biso   1.000  C
  C17      1.0000 0.62700  0.20886  0.62218  Biso   1.000  C
  C18      1.0000 0.37300  0.79114  0.37782  Biso   1.000  C
  C19      1.0000 0.65575  0.11779  0.67304  Biso   1.000  C
  C20      1.0000 0.34425  0.88221  0.32696  Biso   1.000  C
  C21      1.0000 0.35655  0.09777  0.13196  Biso   1.000  C
  C22      1.0000 0.64345  0.90223  0.86804  Biso   1.000  C
  C23      1.0000 0.26458  0.15508  0.19489  Biso   1.000  C
  C24      1.0000 0.73542  0.84492  0.80511  Biso   1.000  C
  C25      1.0000 0.12701  0.14272  0.12744  Biso   1.000  C
  C26      1.0000 0.87300  0.85728  0.87256  Biso   1.000  C
  C27      1.0000 0.04172  0.20006  0.18237  Biso   1.000  C
  C28      1.0000 0.95828  0.79994  0.81763  Biso   1.000  C
  C29      1.0000 0.09520  0.27275  0.30514  Biso   1.000  C
  C30      1.0000 0.90480  0.72725  0.69486  Biso   1.000  C
  C31      1.0000 0.23349  0.28696  0.37426  Biso   1.000  C
  C32      1.0000 0.76651  0.71304  0.62574  Biso   1.000  C
  C33      1.0000 0.31702  0.22613  0.31808  Biso   1.000  C
  C34      1.0000 0.68298  0.77387  0.68193  Biso   1.000  C
  C35      1.0000 0.29541  0.36729  0.50212  Biso   1.000  C
  C36      1.0000 0.70460  0.63271  0.49789  Biso   1.000  C
  C37      1.0000 0.45234  0.45973  0.68724  Biso   1.000  C
  C38      1.0000 0.54766  0.54028  0.31276  Biso   1.000  C
  C39      1.0000 0.35846  0.52427  0.70585  Biso   1.000  C
  C40      1.0000 0.64154  0.47573  0.29415  Biso   1.000  C
  C41      1.0000 0.77448  0.09327  0.37037  Biso   1.000  C
  C42      1.0000 0.22552  0.90673  0.62963  Biso   1.000  C
  C43      1.0000 0.87427  0.09244  0.46732  Biso   1.000  C
  C44      1.0000 0.12573  0.90756  0.53268  Biso   1.000  C
  C45      1.0000 0.94525  0.00125  0.44967  Biso   1.000  C
  C46      1.0000 0.05475  0.99875  0.55034  Biso   1.000  C
  C47      1.0000 0.90731  0.91262  0.33162  Biso   1.000  C
  C48      1.0000 0.09269  0.08737  0.66838  Biso   1.000  C
  C49      1.0000 0.80613  0.91926  0.23938  Biso   1.000  C
  C50      1.0000 0.19387  0.08073  0.76062  Biso   1.000  C
  S1       1.0000 0.77677  0.36626  0.68247  Biso   1.000  S
  S2       1.0000 0.22323  0.63374  0.31753  Biso   1.000  S
  S3       1.0000 0.21900  0.47336  0.57535  Biso   1.000  S
  S4       1.0000 0.78100  0.52664  0.42465  Biso   1.000  S
  N1       1.0000 0.79246  0.16952  0.75723  Biso   1.000  N
  N2       1.0000 0.20755  0.83048  0.24277  Biso   1.000  N
  N3       1.0000 0.41646  0.37200  0.57313  Biso   1.000  N
  N4       1.0000 0.58354  0.62800  0.42687  Biso   1.000  N
  N5       1.0000 0.74102  0.00872  0.25761  Biso   1.000  N
  N6       1.0000 0.25898  0.99129  0.74240  Biso   1.000  N
  O1       1.0000 0.44104  0.81764  0.06323  Biso   1.000  O
  O2       1.0000 0.55896  0.18236  0.93677  Biso   1.000  O
  O3       1.0000 0.28193  0.78757  0.88706  Biso   1.000  O
  O4       1.0000 0.71808  0.21243  0.11294  Biso   1.000  O
  O5       1.0000 0.47343  0.09705  0.19603  Biso   1.000  O
  O6       1.0000 0.52657  0.90295  0.80397  Biso   1.000  O
  O7       1.0000 0.31142  0.05632  0.01781  Biso   1.000  O
  O8       1.0000 0.68858  0.94368  0.98219  Biso   1.000  O
