#======================================================================

# CRYSTAL DATA

#----------------------------------------------------------------------

data_VESTA_phase_1


_chemical_name_common                  'image0'
_cell_length_a                         6.71920
_cell_length_b                         15.24020
_cell_length_c                         15.24020
_cell_angle_alpha                      62.12120
_cell_angle_beta                       81.54900
_cell_angle_gamma                      98.45100
_space_group_name_H-M_alt              'P 1'
_space_group_IT_number                 1

loop_
_space_group_symop_operation_xyz
   'x, y, z'

loop_
   _atom_site_label
   _atom_site_occupancy
   _atom_site_fract_x
   _atom_site_fract_y
   _atom_site_fract_z
   _atom_site_adp_type
   _atom_site_B_iso_or_equiv
   _atom_site_type_symbol
   Zn1        1.0     0.301990      0.264840      0.314200     Biso  1.000000 Zn
   Zn2        1.0     0.616190      0.314200      0.420960     Biso  1.000000 Zn
   Zn3        1.0     0.037150      0.420960      0.264840     Biso  1.000000 Zn
   Zn4        1.0     0.698010      0.735160      0.685800     Biso  1.000000 Zn
   Zn5        1.0     0.383810      0.685800      0.579040     Biso  1.000000 Zn
   Zn6        1.0     0.962850      0.579040      0.735160     Biso  1.000000 Zn
   H1         1.0     0.302100      0.468800      0.547800     Biso  1.000000 H
   H2         1.0     0.849900      0.547800      0.983400     Biso  1.000000 H
   H3         1.0     0.833300      0.983400      0.468800     Biso  1.000000 H
   H4         1.0     0.697900      0.531200      0.452200     Biso  1.000000 H
   H5         1.0     0.150100      0.452200      0.016600     Biso  1.000000 H
   H6         1.0     0.166700      0.016600      0.531200     Biso  1.000000 H
   C1         1.0     0.239900      0.387200      0.437400     Biso  1.000000 C
   C2         1.0     0.113500      0.447000      0.465700     Biso  1.000000 C
   C3         1.0     0.928800      0.467000      0.433800     Biso  1.000000 C
   C4         1.0     0.179000      0.481300      0.529100     Biso  1.000000 C
   C5         1.0     0.677300      0.437400      0.175400     Biso  1.000000 C
   C6         1.0     0.579200      0.465700      0.087300     Biso  1.000000 C
   C7         1.0     0.362600      0.433800      0.099200     Biso  1.000000 C
   C8         1.0     0.708100      0.529100      0.989600     Biso  1.000000 C
   C9         1.0     0.852700      0.175400      0.387200     Biso  1.000000 C
   C10        1.0     0.666500      0.087300      0.447000     Biso  1.000000 C
   C11        1.0     0.461800      0.099200      0.467000     Biso  1.000000 C
   C12        1.0     0.697700      0.989600      0.481300     Biso  1.000000 C
   C13        1.0     0.760100      0.612800      0.562600     Biso  1.000000 C
   C14        1.0     0.886500      0.553000      0.534300     Biso  1.000000 C
   C15        1.0     0.071200      0.533000      0.566200     Biso  1.000000 C
   C16        1.0     0.821000      0.518700      0.470900     Biso  1.000000 C
   C17        1.0     0.322700      0.562600      0.824600     Biso  1.000000 C
   C18        1.0     0.420800      0.534300      0.912700     Biso  1.000000 C
   C19        1.0     0.637400      0.566200      0.900800     Biso  1.000000 C
   C20        1.0     0.291900      0.470900      0.010400     Biso  1.000000 C
   C21        1.0     0.147300      0.824600      0.612800     Biso  1.000000 C
   C22        1.0     0.333500      0.912700      0.553000     Biso  1.000000 C
   C23        1.0     0.538200      0.900800      0.533000     Biso  1.000000 C
   C24        1.0     0.302300      0.010400      0.518700     Biso  1.000000 C
   O1         1.0     0.186500      0.354200      0.379500     Biso  1.000000 O
   O2         1.0     0.395800      0.367700      0.474600     Biso  1.000000 O
   O3         1.0     0.852900      0.440900      0.369900     Biso  1.000000 O
   O4         1.0     0.566000      0.379500      0.266300     Biso  1.000000 O
   O5         1.0     0.870400      0.474600      0.157700     Biso  1.000000 O
   O6         1.0     0.222800      0.369900      0.189200     Biso  1.000000 O
   O7         1.0     0.832300      0.266300      0.354200     Biso  1.000000 O
   O8         1.0     0.028100      0.157700      0.367700     Biso  1.000000 O
   O9         1.0     0.412000      0.189200      0.440900     Biso  1.000000 O
   O10        1.0     0.813500      0.645800      0.620500     Biso  1.000000 O
   O11        1.0     0.604200      0.632300      0.525400     Biso  1.000000 O
   O12        1.0     0.147100      0.559100      0.630100     Biso  1.000000 O
   O13        1.0     0.434000      0.620500      0.733700     Biso  1.000000 O
   O14        1.0     0.129600      0.525400      0.842300     Biso  1.000000 O
   O15        1.0     0.777200      0.630100      0.810800     Biso  1.000000 O
   O16        1.0     0.167700      0.733700      0.645800     Biso  1.000000 O
   O17        1.0     0.971900      0.842300      0.632300     Biso  1.000000 O
   O18        1.0     0.588000      0.810800      0.559100     Biso  1.000000 O
