data_image0
_chemical_formula_structural       Mg18O54C72H18O18H36
_chemical_formula_sum              "Mg18 O72 C72 H54"
_cell_length_a       25.9434
_cell_length_b       25.9434
_cell_length_c       6.8189
_cell_angle_alpha    90
_cell_angle_beta     90
_cell_angle_gamma    120

_space_group_name_H-M_alt    "P 1"
_space_group_IT_number       1

loop_
  _space_group_symop_operation_xyz
  'x, y, z'

loop_
  _atom_site_type_symbol
  _atom_site_label
  _atom_site_symmetry_multiplicity
  _atom_site_fract_x
  _atom_site_fract_y
  _atom_site_fract_z
  _atom_site_occupancy
  Mg  Mg1       1.0  0.36784  0.05165  0.51949  1.0000
  Mg  Mg2       1.0  0.63216  0.94835  0.48051  1.0000
  Mg  Mg3       1.0  0.94835  0.31619  0.51949  1.0000
  Mg  Mg4       1.0  0.05165  0.68381  0.48051  1.0000
  Mg  Mg5       1.0  0.68381  0.63216  0.51949  1.0000
  Mg  Mg6       1.0  0.31619  0.36784  0.48051  1.0000
  Mg  Mg7       1.0  0.03451  0.38498  0.85282  1.0000
  Mg  Mg8       1.0  0.29883  0.28168  0.81384  1.0000
  Mg  Mg9       1.0  0.61502  0.64952  0.85282  1.0000
  Mg  Mg10      1.0  0.71832  0.01714  0.81384  1.0000
  Mg  Mg11      1.0  0.35048  0.96549  0.85282  1.0000
  Mg  Mg12      1.0  0.98286  0.70117  0.81384  1.0000
  Mg  Mg13      1.0  0.70117  0.71832  0.18616  1.0000
  Mg  Mg14      1.0  0.96549  0.61502  0.14718  1.0000
  Mg  Mg15      1.0  0.28168  0.98286  0.18616  1.0000
  Mg  Mg16      1.0  0.38498  0.35048  0.14718  1.0000
  Mg  Mg17      1.0  0.01714  0.29883  0.18616  1.0000
  Mg  Mg18      1.0  0.64952  0.03451  0.14718  1.0000
  O   O1        1.0  0.34272  0.03695  0.97870  1.0000
  O   O2        1.0  0.65728  0.96305  0.02130  1.0000
  O   O3        1.0  0.96305  0.30577  0.97870  1.0000
  O   O4        1.0  0.03695  0.69423  0.02130  1.0000
  O   O5        1.0  0.69423  0.65728  0.97870  1.0000
  O   O6        1.0  0.30577  0.34272  0.02130  1.0000
  O   O7        1.0  0.00939  0.37028  0.31203  1.0000
  O   O8        1.0  0.32395  0.29638  0.35463  1.0000
  O   O9        1.0  0.62972  0.63910  0.31203  1.0000
  O   O10       1.0  0.70362  0.02756  0.35463  1.0000
  O   O11       1.0  0.36090  0.99061  0.31203  1.0000
  O   O12       1.0  0.97244  0.67605  0.35463  1.0000
  O   O13       1.0  0.67605  0.70362  0.64537  1.0000
  O   O14       1.0  0.99061  0.62972  0.68797  1.0000
  O   O15       1.0  0.29638  0.97244  0.64537  1.0000
  O   O16       1.0  0.37028  0.36090  0.68797  1.0000
  O   O17       1.0  0.02756  0.32395  0.64537  1.0000
  O   O18       1.0  0.63910  0.00939  0.68797  1.0000
  O   O19       1.0  0.35687  0.27341  0.99580  1.0000
  O   O20       1.0  0.64313  0.72659  0.00420  1.0000
  O   O21       1.0  0.72659  0.08346  0.99580  1.0000
  O   O22       1.0  0.27341  0.91654  0.00420  1.0000
  O   O23       1.0  0.91654  0.64313  0.99580  1.0000
  O   O24       1.0  0.08346  0.35687  0.00420  1.0000
  O   O25       1.0  0.02354  0.60674  0.32913  1.0000
  O   O26       1.0  0.30980  0.05992  0.33753  1.0000
  O   O27       1.0  0.39326  0.41679  0.32913  1.0000
  O   O28       1.0  0.94008  0.24987  0.33753  1.0000
  O   O29       1.0  0.58321  0.97646  0.32913  1.0000
  O   O30       1.0  0.75013  0.69020  0.33753  1.0000
  O   O31       1.0  0.69020  0.94008  0.66247  1.0000
  O   O32       1.0  0.97646  0.39326  0.67087  1.0000
  O   O33       1.0  0.05992  0.75013  0.66247  1.0000
  O   O34       1.0  0.60674  0.58321  0.67087  1.0000
  O   O35       1.0  0.24987  0.30980  0.66247  1.0000
  O   O36       1.0  0.41679  0.02354  0.67087  1.0000
  O   O37       1.0  0.36582  0.10277  0.74120  1.0000
  O   O38       1.0  0.63418  0.89723  0.25880  1.0000
  O   O39       1.0  0.89723  0.26305  0.74120  1.0000
  O   O40       1.0  0.10277  0.73695  0.25880  1.0000
  O   O41       1.0  0.73695  0.63418  0.74120  1.0000
  O   O42       1.0  0.26305  0.36582  0.25880  1.0000
  O   O43       1.0  0.03249  0.43610  0.07453  1.0000
  O   O44       1.0  0.30085  0.23056  0.59213  1.0000
  O   O45       1.0  0.56390  0.59638  0.07453  1.0000
  O   O46       1.0  0.76944  0.07028  0.59213  1.0000
  O   O47       1.0  0.40362  0.96751  0.07453  1.0000
  O   O48       1.0  0.92972  0.69915  0.59213  1.0000
  O   O49       1.0  0.69915  0.76944  0.40787  1.0000
  O   O50       1.0  0.96751  0.56390  0.92547  1.0000
  O   O51       1.0  0.23056  0.92972  0.40787  1.0000
  O   O52       1.0  0.43610  0.40362  0.92547  1.0000
  O   O53       1.0  0.07028  0.30085  0.40787  1.0000
  O   O54       1.0  0.59638  0.03249  0.92547  1.0000
  C   C1        1.0  0.34933  0.08587  0.91400  1.0000
  C   C2        1.0  0.65067  0.91413  0.08600  1.0000
  C   C3        1.0  0.91413  0.26346  0.91400  1.0000
  C   C4        1.0  0.08587  0.73654  0.08600  1.0000
  C   C5        1.0  0.73654  0.65067  0.91400  1.0000
  C   C6        1.0  0.26346  0.34933  0.08600  1.0000
  C   C7        1.0  0.01600  0.41920  0.24733  1.0000
  C   C8        1.0  0.31734  0.24746  0.41933  1.0000
  C   C9        1.0  0.58080  0.59679  0.24733  1.0000
  C   C10       1.0  0.75254  0.06987  0.41933  1.0000
  C   C11       1.0  0.40321  0.98400  0.24733  1.0000
  C   C12       1.0  0.93013  0.68266  0.41933  1.0000
  C   C13       1.0  0.68266  0.75254  0.58067  1.0000
  C   C14       1.0  0.98400  0.58080  0.75267  1.0000
  C   C15       1.0  0.24746  0.93013  0.58067  1.0000
  C   C16       1.0  0.41920  0.40321  0.75267  1.0000
  C   C17       1.0  0.06987  0.31734  0.58067  1.0000
  C   C18       1.0  0.59679  0.01600  0.75267  1.0000
  C   C19       1.0  0.34438  0.22196  0.08290  1.0000
  C   C20       1.0  0.65562  0.77804  0.91710  1.0000
  C   C21       1.0  0.77804  0.12242  0.08290  1.0000
  C   C22       1.0  0.22196  0.87758  0.91710  1.0000
  C   C23       1.0  0.87758  0.65562  0.08290  1.0000
  C   C24       1.0  0.12242  0.34438  0.91710  1.0000
  C   C25       1.0  0.01105  0.55529  0.41623  1.0000
  C   C26       1.0  0.32229  0.11137  0.25043  1.0000
  C   C27       1.0  0.44471  0.45575  0.41623  1.0000
  C   C28       1.0  0.88863  0.21091  0.25043  1.0000
  C   C29       1.0  0.54425  0.98895  0.41623  1.0000
  C   C30       1.0  0.78909  0.67771  0.25043  1.0000
  C   C31       1.0  0.67771  0.88863  0.74957  1.0000
  C   C32       1.0  0.98895  0.44471  0.58377  1.0000
  C   C33       1.0  0.11137  0.78909  0.74957  1.0000
  C   C34       1.0  0.55529  0.54425  0.58377  1.0000
  C   C35       1.0  0.21091  0.32229  0.74957  1.0000
  C   C36       1.0  0.45575  0.01105  0.58377  1.0000
  C   C37       1.0  0.33900  0.12495  0.04940  1.0000
  C   C38       1.0  0.66100  0.87505  0.95060  1.0000
  C   C39       1.0  0.87505  0.21405  0.04940  1.0000
  C   C40       1.0  0.12495  0.78595  0.95060  1.0000
  C   C41       1.0  0.78595  0.66100  0.04940  1.0000
  C   C42       1.0  0.21405  0.33900  0.95060  1.0000
  C   C43       1.0  0.00567  0.45828  0.38273  1.0000
  C   C44       1.0  0.32767  0.20838  0.28393  1.0000
  C   C45       1.0  0.54172  0.54738  0.38273  1.0000
  C   C46       1.0  0.79162  0.11928  0.28393  1.0000
  C   C47       1.0  0.45262  0.99433  0.38273  1.0000
  C   C48       1.0  0.88072  0.67233  0.28393  1.0000
  C   C49       1.0  0.67233  0.79162  0.71607  1.0000
  C   C50       1.0  0.99433  0.54172  0.61727  1.0000
  C   C51       1.0  0.20838  0.88072  0.71607  1.0000
  C   C52       1.0  0.45828  0.45262  0.61727  1.0000
  C   C53       1.0  0.11928  0.32767  0.71607  1.0000
  C   C54       1.0  0.54738  0.00567  0.61727  1.0000
  C   C55       1.0  0.34947  0.17937  0.97430  1.0000
  C   C56       1.0  0.65053  0.82063  0.02570  1.0000
  C   C57       1.0  0.82063  0.17010  0.97430  1.0000
  C   C58       1.0  0.17937  0.82990  0.02570  1.0000
  C   C59       1.0  0.82990  0.65053  0.97430  1.0000
  C   C60       1.0  0.17010  0.34947  0.02570  1.0000
  C   C61       1.0  0.01614  0.51270  0.30763  1.0000
  C   C62       1.0  0.31720  0.15396  0.35903  1.0000
  C   C63       1.0  0.48730  0.50343  0.30763  1.0000
  C   C64       1.0  0.84604  0.16323  0.35903  1.0000
  C   C65       1.0  0.49657  0.98386  0.30763  1.0000
  C   C66       1.0  0.83677  0.68280  0.35903  1.0000
  C   C67       1.0  0.68280  0.84604  0.64097  1.0000
  C   C68       1.0  0.98386  0.48730  0.69237  1.0000
  C   C69       1.0  0.15396  0.83677  0.64097  1.0000
  C   C70       1.0  0.51270  0.49657  0.69237  1.0000
  C   C71       1.0  0.16323  0.31720  0.64097  1.0000
  C   C72       1.0  0.50343  0.01614  0.69237  1.0000
  H   H1        1.0  0.36080  0.18787  0.84054  1.0000
  H   H2        1.0  0.63920  0.81213  0.15946  1.0000
  H   H3        1.0  0.81213  0.17293  0.84054  1.0000
  H   H4        1.0  0.18787  0.82707  0.15946  1.0000
  H   H5        1.0  0.82707  0.63920  0.84054  1.0000
  H   H6        1.0  0.17293  0.36080  0.15946  1.0000
  H   H7        1.0  0.02747  0.52120  0.17388  1.0000
  H   H8        1.0  0.30587  0.14547  0.49279  1.0000
  H   H9        1.0  0.47880  0.50627  0.17388  1.0000
  H   H10       1.0  0.85453  0.16040  0.49279  1.0000
  H   H11       1.0  0.49373  0.97253  0.17388  1.0000
  H   H12       1.0  0.83960  0.69413  0.49279  1.0000
  H   H13       1.0  0.69413  0.85453  0.50721  1.0000
  H   H14       1.0  0.97253  0.47880  0.82612  1.0000
  H   H15       1.0  0.14547  0.83960  0.50721  1.0000
  H   H16       1.0  0.52120  0.49373  0.82612  1.0000
  H   H17       1.0  0.16040  0.30587  0.50721  1.0000
  H   H18       1.0  0.50627  0.02747  0.82612  1.0000
  O   O55       1.0  0.44189  0.12139  0.38630  1.0000
  O   O56       1.0  0.55811  0.87861  0.61370  1.0000
  O   O57       1.0  0.87861  0.32050  0.38630  1.0000
  O   O58       1.0  0.12139  0.67950  0.61370  1.0000
  O   O59       1.0  0.67950  0.55811  0.38630  1.0000
  O   O60       1.0  0.32050  0.44189  0.61370  1.0000
  O   O61       1.0  0.10856  0.45472  0.71963  1.0000
  O   O62       1.0  0.22478  0.21194  0.94703  1.0000
  O   O63       1.0  0.54528  0.65383  0.71963  1.0000
  O   O64       1.0  0.78806  0.01283  0.94703  1.0000
  O   O65       1.0  0.34617  0.89144  0.71963  1.0000
  O   O66       1.0  0.98717  0.77522  0.94703  1.0000
  O   O67       1.0  0.77522  0.78806  0.05297  1.0000
  O   O68       1.0  0.89144  0.54528  0.28037  1.0000
  O   O69       1.0  0.21194  0.98717  0.05297  1.0000
  O   O70       1.0  0.45472  0.34617  0.28037  1.0000
  O   O71       1.0  0.01283  0.22478  0.05297  1.0000
  O   O72       1.0  0.65383  0.10856  0.28037  1.0000
  H   H19       1.0  0.47430  0.15810  0.44960  1.0000
  H   H20       1.0  0.52570  0.84190  0.55040  1.0000
  H   H21       1.0  0.84190  0.31620  0.44960  1.0000
  H   H22       1.0  0.15810  0.68380  0.55040  1.0000
  H   H23       1.0  0.68380  0.52570  0.44960  1.0000
  H   H24       1.0  0.31620  0.47430  0.55040  1.0000
  H   H25       1.0  0.14097  0.49143  0.78293  1.0000
  H   H26       1.0  0.19237  0.17523  0.88373  1.0000
  H   H27       1.0  0.50857  0.64953  0.78293  1.0000
  H   H28       1.0  0.82477  0.01713  0.88373  1.0000
  H   H29       1.0  0.35047  0.85903  0.78293  1.0000
  H   H30       1.0  0.98287  0.80763  0.88373  1.0000
  H   H31       1.0  0.80763  0.82477  0.11627  1.0000
  H   H32       1.0  0.85903  0.50857  0.21707  1.0000
  H   H33       1.0  0.17523  0.98287  0.11627  1.0000
  H   H34       1.0  0.49143  0.35047  0.21707  1.0000
  H   H35       1.0  0.01713  0.19237  0.11627  1.0000
  H   H36       1.0  0.64953  0.14097  0.21707  1.0000
  H   H37       1.0  0.45320  0.12580  0.24400  1.0000
  H   H38       1.0  0.54680  0.87420  0.75600  1.0000
  H   H39       1.0  0.87420  0.32740  0.24400  1.0000
  H   H40       1.0  0.12580  0.67260  0.75600  1.0000
  H   H41       1.0  0.67260  0.54680  0.24400  1.0000
  H   H42       1.0  0.32740  0.45320  0.75600  1.0000
  H   H43       1.0  0.11987  0.45913  0.57733  1.0000
  H   H44       1.0  0.21347  0.20753  0.08933  1.0000
  H   H45       1.0  0.54087  0.66073  0.57733  1.0000
  H   H46       1.0  0.79247  0.00593  0.08933  1.0000
  H   H47       1.0  0.33927  0.88013  0.57733  1.0000
  H   H48       1.0  0.99407  0.78653  0.08933  1.0000
  H   H49       1.0  0.78653  0.79247  0.91067  1.0000
  H   H50       1.0  0.88013  0.54087  0.42267  1.0000
  H   H51       1.0  0.20753  0.99407  0.91067  1.0000
  H   H52       1.0  0.45913  0.33927  0.42267  1.0000
  H   H53       1.0  0.00593  0.21347  0.91067  1.0000
  H   H54       1.0  0.66073  0.11987  0.42267  1.0000
